
---------- Begin Simulation Statistics ----------
simSeconds                                   3.379205                       # Number of seconds simulated (Second)
simTicks                                 3379205231000                       # Number of ticks simulated (Tick)
finalTick                                3379205231000                       # Number of ticks from beginning of simulation (restored from checkpoints and never reset) (Tick)
simFreq                                  1000000000000                       # The number of ticks per simulated second ((Tick/Second))
hostSeconds                                   3229.47                       # Real time elapsed on the host (Second)
hostTickRate                               1046364719                       # The number of ticks simulated per host second (ticks/s) ((Tick/Second))
hostMemory                                  405225968                       # Number of bytes of host memory used (Byte)
simInsts                                   1272119747                       # Number of instructions simulated (Count)
simOps                                     1272119747                       # Number of ops (including micro ops) simulated (Count)
hostInstRate                                   393910                       # Simulator instruction rate (inst/s) ((Count/Second))
hostOpRate                                     393910                       # Simulator op (including micro ops) rate (op/s) ((Count/Second))
system.clk_domain.clock                          1000                       # Clock period in ticks (Tick)
system.clk_domain.voltage_domain.voltage            1                       # Voltage in Volts (Volt)
system.cpu.numCycles                       3379205231                       # Number of cpu cycles simulated (Cycle)
system.cpu.cpi                               2.656358                       # CPI: cycles per instruction (core level) ((Cycle/Count))
system.cpu.ipc                               0.376455                       # IPC: instructions per cycle (core level) ((Count/Cycle))
system.cpu.numWorkItemsStarted                      0                       # Number of work items this cpu started (Count)
system.cpu.numWorkItemsCompleted                    0                       # Number of work items this cpu completed (Count)
system.cpu.branchPred.lookups_0::NoBranch          498      0.00%      0.00% # Number of BP lookups (Count)
system.cpu.branchPred.lookups_0::Return          4199      0.01%      0.01% # Number of BP lookups (Count)
system.cpu.branchPred.lookups_0::CallDirect         3550      0.00%      0.01% # Number of BP lookups (Count)
system.cpu.branchPred.lookups_0::CallIndirect           70      0.00%      0.01% # Number of BP lookups (Count)
system.cpu.branchPred.lookups_0::DirectCond     70019338     95.88%     95.89% # Number of BP lookups (Count)
system.cpu.branchPred.lookups_0::DirectUncond      3003056      4.11%    100.00% # Number of BP lookups (Count)
system.cpu.branchPred.lookups_0::IndirectCond            0      0.00%    100.00% # Number of BP lookups (Count)
system.cpu.branchPred.lookups_0::IndirectUncond           77      0.00%    100.00% # Number of BP lookups (Count)
system.cpu.branchPred.lookups_0::total       73030788                       # Number of BP lookups (Count)
system.cpu.branchPred.squashes_0::NoBranch            3      0.05%      0.05% # Number of branches that got squashed (completely removed) as an earlier branch was mispredicted. (Count)
system.cpu.branchPred.squashes_0::Return         1129     17.56%     17.60% # Number of branches that got squashed (completely removed) as an earlier branch was mispredicted. (Count)
system.cpu.branchPred.squashes_0::CallDirect          520      8.09%     25.69% # Number of branches that got squashed (completely removed) as an earlier branch was mispredicted. (Count)
system.cpu.branchPred.squashes_0::CallIndirect           28      0.44%     26.13% # Number of branches that got squashed (completely removed) as an earlier branch was mispredicted. (Count)
system.cpu.branchPred.squashes_0::DirectCond         3922     61.00%     87.12% # Number of branches that got squashed (completely removed) as an earlier branch was mispredicted. (Count)
system.cpu.branchPred.squashes_0::DirectUncond          824     12.81%     99.94% # Number of branches that got squashed (completely removed) as an earlier branch was mispredicted. (Count)
system.cpu.branchPred.squashes_0::IndirectCond            0      0.00%     99.94% # Number of branches that got squashed (completely removed) as an earlier branch was mispredicted. (Count)
system.cpu.branchPred.squashes_0::IndirectUncond            4      0.06%    100.00% # Number of branches that got squashed (completely removed) as an earlier branch was mispredicted. (Count)
system.cpu.branchPred.squashes_0::total          6430                       # Number of branches that got squashed (completely removed) as an earlier branch was mispredicted. (Count)
system.cpu.branchPred.corrected_0::NoBranch          494     15.94%     15.94% # Number of branches that got corrected but not yet commited. Branches get corrected by decode or after execute. Also a branch misprediction can be detected out-of-order. Therefore, a corrected branch might not end up beeing committed in case an even earlier branch was mispredicted (Count)
system.cpu.branchPred.corrected_0::Return            0      0.00%     15.94% # Number of branches that got corrected but not yet commited. Branches get corrected by decode or after execute. Also a branch misprediction can be detected out-of-order. Therefore, a corrected branch might not end up beeing committed in case an even earlier branch was mispredicted (Count)
system.cpu.branchPred.corrected_0::CallDirect          228      7.36%     23.30% # Number of branches that got corrected but not yet commited. Branches get corrected by decode or after execute. Also a branch misprediction can be detected out-of-order. Therefore, a corrected branch might not end up beeing committed in case an even earlier branch was mispredicted (Count)
system.cpu.branchPred.corrected_0::CallIndirect           28      0.90%     24.20% # Number of branches that got corrected but not yet commited. Branches get corrected by decode or after execute. Also a branch misprediction can be detected out-of-order. Therefore, a corrected branch might not end up beeing committed in case an even earlier branch was mispredicted (Count)
system.cpu.branchPred.corrected_0::DirectCond         2150     69.38%     93.58% # Number of branches that got corrected but not yet commited. Branches get corrected by decode or after execute. Also a branch misprediction can be detected out-of-order. Therefore, a corrected branch might not end up beeing committed in case an even earlier branch was mispredicted (Count)
system.cpu.branchPred.corrected_0::DirectUncond          173      5.58%     99.16% # Number of branches that got corrected but not yet commited. Branches get corrected by decode or after execute. Also a branch misprediction can be detected out-of-order. Therefore, a corrected branch might not end up beeing committed in case an even earlier branch was mispredicted (Count)
system.cpu.branchPred.corrected_0::IndirectCond            0      0.00%     99.16% # Number of branches that got corrected but not yet commited. Branches get corrected by decode or after execute. Also a branch misprediction can be detected out-of-order. Therefore, a corrected branch might not end up beeing committed in case an even earlier branch was mispredicted (Count)
system.cpu.branchPred.corrected_0::IndirectUncond           26      0.84%    100.00% # Number of branches that got corrected but not yet commited. Branches get corrected by decode or after execute. Also a branch misprediction can be detected out-of-order. Therefore, a corrected branch might not end up beeing committed in case an even earlier branch was mispredicted (Count)
system.cpu.branchPred.corrected_0::total         3099                       # Number of branches that got corrected but not yet commited. Branches get corrected by decode or after execute. Also a branch misprediction can be detected out-of-order. Therefore, a corrected branch might not end up beeing committed in case an even earlier branch was mispredicted (Count)
system.cpu.branchPred.earlyResteers_0::NoBranch            0                       # Number of branches that got redirected after decode. (Count)
system.cpu.branchPred.earlyResteers_0::Return            0                       # Number of branches that got redirected after decode. (Count)
system.cpu.branchPred.earlyResteers_0::CallDirect            0                       # Number of branches that got redirected after decode. (Count)
system.cpu.branchPred.earlyResteers_0::CallIndirect            0                       # Number of branches that got redirected after decode. (Count)
system.cpu.branchPred.earlyResteers_0::DirectCond            0                       # Number of branches that got redirected after decode. (Count)
system.cpu.branchPred.earlyResteers_0::DirectUncond            0                       # Number of branches that got redirected after decode. (Count)
system.cpu.branchPred.earlyResteers_0::IndirectCond            0                       # Number of branches that got redirected after decode. (Count)
system.cpu.branchPred.earlyResteers_0::IndirectUncond            0                       # Number of branches that got redirected after decode. (Count)
system.cpu.branchPred.earlyResteers_0::total            0                       # Number of branches that got redirected after decode. (Count)
system.cpu.branchPred.committed_0::NoBranch          494      0.00%      0.00% # Number of branches finally committed  (Count)
system.cpu.branchPred.committed_0::Return         3070      0.00%      0.00% # Number of branches finally committed  (Count)
system.cpu.branchPred.committed_0::CallDirect         3029      0.00%      0.01% # Number of branches finally committed  (Count)
system.cpu.branchPred.committed_0::CallIndirect           42      0.00%      0.01% # Number of branches finally committed  (Count)
system.cpu.branchPred.committed_0::DirectCond     70015415     95.88%     95.89% # Number of branches finally committed  (Count)
system.cpu.branchPred.committed_0::DirectUncond      3002230      4.11%    100.00% # Number of branches finally committed  (Count)
system.cpu.branchPred.committed_0::IndirectCond            0      0.00%    100.00% # Number of branches finally committed  (Count)
system.cpu.branchPred.committed_0::IndirectUncond           73      0.00%    100.00% # Number of branches finally committed  (Count)
system.cpu.branchPred.committed_0::total     73024353                       # Number of branches finally committed  (Count)
system.cpu.branchPred.mispredicted_0::NoBranch          494     15.94%     15.94% # Number of committed branches that were mispredicted. (Count)
system.cpu.branchPred.mispredicted_0::Return            0      0.00%     15.94% # Number of committed branches that were mispredicted. (Count)
system.cpu.branchPred.mispredicted_0::CallDirect          228      7.36%     23.30% # Number of committed branches that were mispredicted. (Count)
system.cpu.branchPred.mispredicted_0::CallIndirect           28      0.90%     24.20% # Number of committed branches that were mispredicted. (Count)
system.cpu.branchPred.mispredicted_0::DirectCond         2150     69.38%     93.58% # Number of committed branches that were mispredicted. (Count)
system.cpu.branchPred.mispredicted_0::DirectUncond          173      5.58%     99.16% # Number of committed branches that were mispredicted. (Count)
system.cpu.branchPred.mispredicted_0::IndirectCond            0      0.00%     99.16% # Number of committed branches that were mispredicted. (Count)
system.cpu.branchPred.mispredicted_0::IndirectUncond           26      0.84%    100.00% # Number of committed branches that were mispredicted. (Count)
system.cpu.branchPred.mispredicted_0::total         3099                       # Number of committed branches that were mispredicted. (Count)
system.cpu.branchPred.mispredictDueToPredictor_0::NoBranch            0      0.00%      0.00% # Number of committed branches that were mispredicted by the predictor. (Count)
system.cpu.branchPred.mispredictDueToPredictor_0::Return            0      0.00%      0.00% # Number of committed branches that were mispredicted by the predictor. (Count)
system.cpu.branchPred.mispredictDueToPredictor_0::CallDirect            0      0.00%      0.00% # Number of committed branches that were mispredicted by the predictor. (Count)
system.cpu.branchPred.mispredictDueToPredictor_0::CallIndirect            0      0.00%      0.00% # Number of committed branches that were mispredicted by the predictor. (Count)
system.cpu.branchPred.mispredictDueToPredictor_0::DirectCond         1522     99.93%     99.93% # Number of committed branches that were mispredicted by the predictor. (Count)
system.cpu.branchPred.mispredictDueToPredictor_0::DirectUncond            0      0.00%     99.93% # Number of committed branches that were mispredicted by the predictor. (Count)
system.cpu.branchPred.mispredictDueToPredictor_0::IndirectCond            0      0.00%     99.93% # Number of committed branches that were mispredicted by the predictor. (Count)
system.cpu.branchPred.mispredictDueToPredictor_0::IndirectUncond            1      0.07%    100.00% # Number of committed branches that were mispredicted by the predictor. (Count)
system.cpu.branchPred.mispredictDueToPredictor_0::total         1523                       # Number of committed branches that were mispredicted by the predictor. (Count)
system.cpu.branchPred.mispredictDueToBTBMiss_0::NoBranch          494     31.35%     31.35% # Number of committed branches that were mispredicted because of a BTB miss. (Count)
system.cpu.branchPred.mispredictDueToBTBMiss_0::Return            0      0.00%     31.35% # Number of committed branches that were mispredicted because of a BTB miss. (Count)
system.cpu.branchPred.mispredictDueToBTBMiss_0::CallDirect          228     14.47%     45.81% # Number of committed branches that were mispredicted because of a BTB miss. (Count)
system.cpu.branchPred.mispredictDueToBTBMiss_0::CallIndirect           28      1.78%     47.59% # Number of committed branches that were mispredicted because of a BTB miss. (Count)
system.cpu.branchPred.mispredictDueToBTBMiss_0::DirectCond          628     39.85%     87.44% # Number of committed branches that were mispredicted because of a BTB miss. (Count)
system.cpu.branchPred.mispredictDueToBTBMiss_0::DirectUncond          173     10.98%     98.41% # Number of committed branches that were mispredicted because of a BTB miss. (Count)
system.cpu.branchPred.mispredictDueToBTBMiss_0::IndirectCond            0      0.00%     98.41% # Number of committed branches that were mispredicted because of a BTB miss. (Count)
system.cpu.branchPred.mispredictDueToBTBMiss_0::IndirectUncond           25      1.59%    100.00% # Number of committed branches that were mispredicted because of a BTB miss. (Count)
system.cpu.branchPred.mispredictDueToBTBMiss_0::total         1576                       # Number of committed branches that were mispredicted because of a BTB miss. (Count)
system.cpu.branchPred.targetProvider_0::NoTarget        14557      0.02%      0.02% # The component providing the target for taken branches (Count)
system.cpu.branchPred.targetProvider_0::BTB     73011984     99.97%     99.99% # The component providing the target for taken branches (Count)
system.cpu.branchPred.targetProvider_0::RAS         4199      0.01%    100.00% # The component providing the target for taken branches (Count)
system.cpu.branchPred.targetProvider_0::Indirect           48      0.00%    100.00% # The component providing the target for taken branches (Count)
system.cpu.branchPred.targetProvider_0::total     73030788                       # The component providing the target for taken branches (Count)
system.cpu.branchPred.targetWrong_0::NoBranch         2087     80.12%     80.12% # Number of branches where the target was incorrect or not available at prediction time. (Count)
system.cpu.branchPred.targetWrong_0::Return          516     19.81%     99.92% # Number of branches where the target was incorrect or not available at prediction time. (Count)
system.cpu.branchPred.targetWrong_0::CallDirect            0      0.00%     99.92% # Number of branches where the target was incorrect or not available at prediction time. (Count)
system.cpu.branchPred.targetWrong_0::CallIndirect            2      0.08%    100.00% # Number of branches where the target was incorrect or not available at prediction time. (Count)
system.cpu.branchPred.targetWrong_0::DirectCond            0      0.00%    100.00% # Number of branches where the target was incorrect or not available at prediction time. (Count)
system.cpu.branchPred.targetWrong_0::DirectUncond            0      0.00%    100.00% # Number of branches where the target was incorrect or not available at prediction time. (Count)
system.cpu.branchPred.targetWrong_0::IndirectCond            0      0.00%    100.00% # Number of branches where the target was incorrect or not available at prediction time. (Count)
system.cpu.branchPred.targetWrong_0::IndirectUncond            0      0.00%    100.00% # Number of branches where the target was incorrect or not available at prediction time. (Count)
system.cpu.branchPred.targetWrong_0::total         2605                       # Number of branches where the target was incorrect or not available at prediction time. (Count)
system.cpu.branchPred.condPredicted          70019836                       # Number of conditional branches predicted (Count)
system.cpu.branchPred.condPredictedTaken     70008212                       # Number of conditional branches predicted as taken (Count)
system.cpu.branchPred.condIncorrect              3099                       # Number of conditional branches incorrect (Count)
system.cpu.branchPred.predTakenBTBMiss            754                       # Number of branches predicted taken but missed in BTB (Count)
system.cpu.branchPred.BTBLookups             73030788                       # Number of BTB lookups (Count)
system.cpu.branchPred.BTBUpdates                 2035                       # Number of BTB updates (Count)
system.cpu.branchPred.BTBHits                73016757                       # Number of BTB hits (Count)
system.cpu.branchPred.BTBHitRatio            0.999808                       # BTB Hit Ratio (Ratio)
system.cpu.branchPred.BTBMispredicted            1029                       # Number BTB mispredictions. No target found or target wrong (Count)
system.cpu.branchPred.indirectLookups             147                       # Number of indirect predictor lookups. (Count)
system.cpu.branchPred.indirectHits                 48                       # Number of indirect target hits. (Count)
system.cpu.branchPred.indirectMisses               99                       # Number of indirect misses. (Count)
system.cpu.branchPred.indirectMispredicted            0                       # Number of mispredicted indirect branches. (Count)
system.cpu.branchPred.btb.lookups::NoBranch          498      0.00%      0.00% # Number of BTB lookups (Count)
system.cpu.branchPred.btb.lookups::Return         4199      0.01%      0.01% # Number of BTB lookups (Count)
system.cpu.branchPred.btb.lookups::CallDirect         3550      0.00%      0.01% # Number of BTB lookups (Count)
system.cpu.branchPred.btb.lookups::CallIndirect           70      0.00%      0.01% # Number of BTB lookups (Count)
system.cpu.branchPred.btb.lookups::DirectCond     70019338     95.88%     95.89% # Number of BTB lookups (Count)
system.cpu.branchPred.btb.lookups::DirectUncond      3003056      4.11%    100.00% # Number of BTB lookups (Count)
system.cpu.branchPred.btb.lookups::IndirectCond            0      0.00%    100.00% # Number of BTB lookups (Count)
system.cpu.branchPred.btb.lookups::IndirectUncond           77      0.00%    100.00% # Number of BTB lookups (Count)
system.cpu.branchPred.btb.lookups::total     73030788                       # Number of BTB lookups (Count)
system.cpu.branchPred.btb.misses::NoBranch          498      3.55%      3.55% # Number of BTB misses (Count)
system.cpu.branchPred.btb.misses::Return         4199     29.93%     33.48% # Number of BTB misses (Count)
system.cpu.branchPred.btb.misses::CallDirect          561      4.00%     37.47% # Number of BTB misses (Count)
system.cpu.branchPred.btb.misses::CallIndirect           70      0.50%     37.97% # Number of BTB misses (Count)
system.cpu.branchPred.btb.misses::DirectCond         7990     56.95%     94.92% # Number of BTB misses (Count)
system.cpu.branchPred.btb.misses::DirectUncond          636      4.53%     99.45% # Number of BTB misses (Count)
system.cpu.branchPred.btb.misses::IndirectCond            0      0.00%     99.45% # Number of BTB misses (Count)
system.cpu.branchPred.btb.misses::IndirectUncond           77      0.55%    100.00% # Number of BTB misses (Count)
system.cpu.branchPred.btb.misses::total         14031                       # Number of BTB misses (Count)
system.cpu.branchPred.btb.updates::NoBranch            0      0.00%      0.00% # Number of BTB updates (Count)
system.cpu.branchPred.btb.updates::Return            0      0.00%      0.00% # Number of BTB updates (Count)
system.cpu.branchPred.btb.updates::CallDirect          228     11.20%     11.20% # Number of BTB updates (Count)
system.cpu.branchPred.btb.updates::CallIndirect            0      0.00%     11.20% # Number of BTB updates (Count)
system.cpu.branchPred.btb.updates::DirectCond         1634     80.29%     91.50% # Number of BTB updates (Count)
system.cpu.branchPred.btb.updates::DirectUncond          173      8.50%    100.00% # Number of BTB updates (Count)
system.cpu.branchPred.btb.updates::IndirectCond            0      0.00%    100.00% # Number of BTB updates (Count)
system.cpu.branchPred.btb.updates::IndirectUncond            0      0.00%    100.00% # Number of BTB updates (Count)
system.cpu.branchPred.btb.updates::total         2035                       # Number of BTB updates (Count)
system.cpu.branchPred.btb.mispredict::NoBranch            0      0.00%      0.00% # Number of BTB mispredictions. No target found or target wrong. (Count)
system.cpu.branchPred.btb.mispredict::Return            0      0.00%      0.00% # Number of BTB mispredictions. No target found or target wrong. (Count)
system.cpu.branchPred.btb.mispredict::CallDirect          228     11.20%     11.20% # Number of BTB mispredictions. No target found or target wrong. (Count)
system.cpu.branchPred.btb.mispredict::CallIndirect            0      0.00%     11.20% # Number of BTB mispredictions. No target found or target wrong. (Count)
system.cpu.branchPred.btb.mispredict::DirectCond         1634     80.29%     91.50% # Number of BTB mispredictions. No target found or target wrong. (Count)
system.cpu.branchPred.btb.mispredict::DirectUncond          173      8.50%    100.00% # Number of BTB mispredictions. No target found or target wrong. (Count)
system.cpu.branchPred.btb.mispredict::IndirectCond            0      0.00%    100.00% # Number of BTB mispredictions. No target found or target wrong. (Count)
system.cpu.branchPred.btb.mispredict::IndirectUncond            0      0.00%    100.00% # Number of BTB mispredictions. No target found or target wrong. (Count)
system.cpu.branchPred.btb.mispredict::total         2035                       # Number of BTB mispredictions. No target found or target wrong. (Count)
system.cpu.branchPred.btb.power_state.pwrStateResidencyTicks::UNDEFINED 3379205231000                       # Cumulative time (in ticks) in various power states (Tick)
system.cpu.branchPred.indirectBranchPred.lookups          147                       # Number of lookups (Count)
system.cpu.branchPred.indirectBranchPred.hits           48                       # Number of hits of a tag (Count)
system.cpu.branchPred.indirectBranchPred.misses           99                       # Number of misses (Count)
system.cpu.branchPred.indirectBranchPred.targetRecords           53                       # Number of targets that where recorded/installed in the cache (Count)
system.cpu.branchPred.indirectBranchPred.indirectRecords          201                       # Number of indirect branches/calls recorded in the indirect hist (Count)
system.cpu.branchPred.indirectBranchPred.speculativeOverflows            4                       # Number of times more than the allowed capacity for speculative branches/calls where in flight and destroy the path history (Count)
system.cpu.branchPred.ras.pushes                 4749                       # Number of times a PC was pushed onto the RAS (Count)
system.cpu.branchPred.ras.pops                   4747                       # Number of times a PC was poped from the RAS (Count)
system.cpu.branchPred.ras.squashes               1677                       # Number of times the stack operation was squashed due to wrong speculation. (Count)
system.cpu.branchPred.ras.used                   3070                       # Number of times the RAS is the provider (Count)
system.cpu.branchPred.ras.correct                3070                       # Number of times the RAS is the provider and the prediction is correct (Count)
system.cpu.branchPred.ras.incorrect                 0                       # Number of times the RAS is the provider and the prediction is wrong (Count)
system.cpu.commitStats0.numInsts           1272119747                       # Number of instructions committed (thread level) (Count)
system.cpu.commitStats0.numOps             1272119747                       # Number of ops (including micro ops) committed (thread level) (Count)
system.cpu.commitStats0.numInstsNotNOP              0                       # Number of instructions committed excluding NOPs or prefetches (Count)
system.cpu.commitStats0.numOpsNotNOP                0                       # Number of Ops (including micro ops) Simulated (Count)
system.cpu.commitStats0.cpi                  2.656358                       # CPI: cycles per instruction (thread level) ((Cycle/Count))
system.cpu.commitStats0.ipc                  0.376455                       # IPC: instructions per cycle (thread level) ((Count/Cycle))
system.cpu.commitStats0.numMemRefs                  0                       # Number of memory references committed (Count)
system.cpu.commitStats0.numFpInsts                  0                       # Number of float instructions (Count)
system.cpu.commitStats0.numIntInsts                 0                       # Number of integer instructions (Count)
system.cpu.commitStats0.numLoadInsts                0                       # Number of load instructions (Count)
system.cpu.commitStats0.numStoreInsts               0                       # Number of store instructions (Count)
system.cpu.commitStats0.numVecInsts                 0                       # Number of vector instructions (Count)
system.cpu.commitStats0.committedInstType::No_OpClass          705      0.00%      0.00% # Class of committed instruction. (Count)
system.cpu.commitStats0.committedInstType::IntAlu    783079516     61.56%     61.56% # Class of committed instruction. (Count)
system.cpu.commitStats0.committedInstType::IntMult          536      0.00%     61.56% # Class of committed instruction. (Count)
system.cpu.commitStats0.committedInstType::IntDiv           80      0.00%     61.56% # Class of committed instruction. (Count)
system.cpu.commitStats0.committedInstType::FloatAdd     30000952      2.36%     63.92% # Class of committed instruction. (Count)
system.cpu.commitStats0.committedInstType::FloatCmp      3000477      0.24%     64.15% # Class of committed instruction. (Count)
system.cpu.commitStats0.committedInstType::FloatCvt      3001137      0.24%     64.39% # Class of committed instruction. (Count)
system.cpu.commitStats0.committedInstType::FloatMult     20000508      1.57%     65.96% # Class of committed instruction. (Count)
system.cpu.commitStats0.committedInstType::FloatMultAcc           43      0.00%     65.96% # Class of committed instruction. (Count)
system.cpu.commitStats0.committedInstType::FloatDiv           18      0.00%     65.96% # Class of committed instruction. (Count)
system.cpu.commitStats0.committedInstType::FloatMisc          538      0.00%     65.96% # Class of committed instruction. (Count)
system.cpu.commitStats0.committedInstType::FloatSqrt            0      0.00%     65.96% # Class of committed instruction. (Count)
system.cpu.commitStats0.committedInstType::SimdAdd            0      0.00%     65.96% # Class of committed instruction. (Count)
system.cpu.commitStats0.committedInstType::SimdAddAcc            0      0.00%     65.96% # Class of committed instruction. (Count)
system.cpu.commitStats0.committedInstType::SimdAlu            0      0.00%     65.96% # Class of committed instruction. (Count)
system.cpu.commitStats0.committedInstType::SimdCmp            0      0.00%     65.96% # Class of committed instruction. (Count)
system.cpu.commitStats0.committedInstType::SimdCvt            0      0.00%     65.96% # Class of committed instruction. (Count)
system.cpu.commitStats0.committedInstType::SimdMisc            0      0.00%     65.96% # Class of committed instruction. (Count)
system.cpu.commitStats0.committedInstType::SimdMult            0      0.00%     65.96% # Class of committed instruction. (Count)
system.cpu.commitStats0.committedInstType::SimdMultAcc            0      0.00%     65.96% # Class of committed instruction. (Count)
system.cpu.commitStats0.committedInstType::SimdMatMultAcc            0      0.00%     65.96% # Class of committed instruction. (Count)
system.cpu.commitStats0.committedInstType::SimdShift            0      0.00%     65.96% # Class of committed instruction. (Count)
system.cpu.commitStats0.committedInstType::SimdShiftAcc            0      0.00%     65.96% # Class of committed instruction. (Count)
system.cpu.commitStats0.committedInstType::SimdDiv            0      0.00%     65.96% # Class of committed instruction. (Count)
system.cpu.commitStats0.committedInstType::SimdSqrt            0      0.00%     65.96% # Class of committed instruction. (Count)
system.cpu.commitStats0.committedInstType::SimdFloatAdd            0      0.00%     65.96% # Class of committed instruction. (Count)
system.cpu.commitStats0.committedInstType::SimdFloatAlu            0      0.00%     65.96% # Class of committed instruction. (Count)
system.cpu.commitStats0.committedInstType::SimdFloatCmp            0      0.00%     65.96% # Class of committed instruction. (Count)
system.cpu.commitStats0.committedInstType::SimdFloatCvt            0      0.00%     65.96% # Class of committed instruction. (Count)
system.cpu.commitStats0.committedInstType::SimdFloatDiv            0      0.00%     65.96% # Class of committed instruction. (Count)
system.cpu.commitStats0.committedInstType::SimdFloatMisc            0      0.00%     65.96% # Class of committed instruction. (Count)
system.cpu.commitStats0.committedInstType::SimdFloatMult            0      0.00%     65.96% # Class of committed instruction. (Count)
system.cpu.commitStats0.committedInstType::SimdFloatMultAcc            0      0.00%     65.96% # Class of committed instruction. (Count)
system.cpu.commitStats0.committedInstType::SimdFloatMatMultAcc            0      0.00%     65.96% # Class of committed instruction. (Count)
system.cpu.commitStats0.committedInstType::SimdFloatSqrt            0      0.00%     65.96% # Class of committed instruction. (Count)
system.cpu.commitStats0.committedInstType::SimdReduceAdd            0      0.00%     65.96% # Class of committed instruction. (Count)
system.cpu.commitStats0.committedInstType::SimdReduceAlu            0      0.00%     65.96% # Class of committed instruction. (Count)
system.cpu.commitStats0.committedInstType::SimdReduceCmp            0      0.00%     65.96% # Class of committed instruction. (Count)
system.cpu.commitStats0.committedInstType::SimdFloatReduceAdd            0      0.00%     65.96% # Class of committed instruction. (Count)
system.cpu.commitStats0.committedInstType::SimdFloatReduceCmp            0      0.00%     65.96% # Class of committed instruction. (Count)
system.cpu.commitStats0.committedInstType::SimdAes            0      0.00%     65.96% # Class of committed instruction. (Count)
system.cpu.commitStats0.committedInstType::SimdAesMix            0      0.00%     65.96% # Class of committed instruction. (Count)
system.cpu.commitStats0.committedInstType::SimdSha1Hash            0      0.00%     65.96% # Class of committed instruction. (Count)
system.cpu.commitStats0.committedInstType::SimdSha1Hash2            0      0.00%     65.96% # Class of committed instruction. (Count)
system.cpu.commitStats0.committedInstType::SimdSha256Hash            0      0.00%     65.96% # Class of committed instruction. (Count)
system.cpu.commitStats0.committedInstType::SimdSha256Hash2            0      0.00%     65.96% # Class of committed instruction. (Count)
system.cpu.commitStats0.committedInstType::SimdShaSigma2            0      0.00%     65.96% # Class of committed instruction. (Count)
system.cpu.commitStats0.committedInstType::SimdShaSigma3            0      0.00%     65.96% # Class of committed instruction. (Count)
system.cpu.commitStats0.committedInstType::SimdPredAlu            0      0.00%     65.96% # Class of committed instruction. (Count)
system.cpu.commitStats0.committedInstType::Matrix            0      0.00%     65.96% # Class of committed instruction. (Count)
system.cpu.commitStats0.committedInstType::MatrixMov            0      0.00%     65.96% # Class of committed instruction. (Count)
system.cpu.commitStats0.committedInstType::MatrixOP            0      0.00%     65.96% # Class of committed instruction. (Count)
system.cpu.commitStats0.committedInstType::MemRead    197018656     15.49%     81.45% # Class of committed instruction. (Count)
system.cpu.commitStats0.committedInstType::MemWrite     92013716      7.23%     88.68% # Class of committed instruction. (Count)
system.cpu.commitStats0.committedInstType::FloatMemRead     98002208      7.70%     96.38% # Class of committed instruction. (Count)
system.cpu.commitStats0.committedInstType::FloatMemWrite     46000657      3.62%    100.00% # Class of committed instruction. (Count)
system.cpu.commitStats0.committedInstType::IprAccess            0      0.00%    100.00% # Class of committed instruction. (Count)
system.cpu.commitStats0.committedInstType::InstPrefetch            0      0.00%    100.00% # Class of committed instruction. (Count)
system.cpu.commitStats0.committedInstType::SimdUnitStrideLoad            0      0.00%    100.00% # Class of committed instruction. (Count)
system.cpu.commitStats0.committedInstType::SimdUnitStrideStore            0      0.00%    100.00% # Class of committed instruction. (Count)
system.cpu.commitStats0.committedInstType::SimdUnitStrideMaskLoad            0      0.00%    100.00% # Class of committed instruction. (Count)
system.cpu.commitStats0.committedInstType::SimdUnitStrideMaskStore            0      0.00%    100.00% # Class of committed instruction. (Count)
system.cpu.commitStats0.committedInstType::SimdStridedLoad            0      0.00%    100.00% # Class of committed instruction. (Count)
system.cpu.commitStats0.committedInstType::SimdStridedStore            0      0.00%    100.00% # Class of committed instruction. (Count)
system.cpu.commitStats0.committedInstType::SimdIndexedLoad            0      0.00%    100.00% # Class of committed instruction. (Count)
system.cpu.commitStats0.committedInstType::SimdIndexedStore            0      0.00%    100.00% # Class of committed instruction. (Count)
system.cpu.commitStats0.committedInstType::SimdWholeRegisterLoad            0      0.00%    100.00% # Class of committed instruction. (Count)
system.cpu.commitStats0.committedInstType::SimdWholeRegisterStore            0      0.00%    100.00% # Class of committed instruction. (Count)
system.cpu.commitStats0.committedInstType::SimdUnitStrideFaultOnlyFirstLoad            0      0.00%    100.00% # Class of committed instruction. (Count)
system.cpu.commitStats0.committedInstType::SimdUnitStrideSegmentedLoad            0      0.00%    100.00% # Class of committed instruction. (Count)
system.cpu.commitStats0.committedInstType::SimdUnitStrideSegmentedStore            0      0.00%    100.00% # Class of committed instruction. (Count)
system.cpu.commitStats0.committedInstType::SimdUnitStrideSegmentedFaultOnlyFirstLoad            0      0.00%    100.00% # Class of committed instruction. (Count)
system.cpu.commitStats0.committedInstType::SimdStrideSegmentedLoad            0      0.00%    100.00% # Class of committed instruction. (Count)
system.cpu.commitStats0.committedInstType::SimdStrideSegmentedStore            0      0.00%    100.00% # Class of committed instruction. (Count)
system.cpu.commitStats0.committedInstType::SimdExt            0      0.00%    100.00% # Class of committed instruction. (Count)
system.cpu.commitStats0.committedInstType::SimdFloatExt            0      0.00%    100.00% # Class of committed instruction. (Count)
system.cpu.commitStats0.committedInstType::SimdConfig            0      0.00%    100.00% # Class of committed instruction. (Count)
system.cpu.commitStats0.committedInstType::total   1272119747                       # Class of committed instruction. (Count)
system.cpu.dcache.demandHits::cpu.data      269073133                       # number of demand (read+write) hits (Count)
system.cpu.dcache.demandHits::total         269073133                       # number of demand (read+write) hits (Count)
system.cpu.dcache.overallHits::cpu.data     269073133                       # number of overall hits (Count)
system.cpu.dcache.overallHits::total        269073133                       # number of overall hits (Count)
system.cpu.dcache.demandMisses::cpu.data    119215482                       # number of demand (read+write) misses (Count)
system.cpu.dcache.demandMisses::total       119215482                       # number of demand (read+write) misses (Count)
system.cpu.dcache.overallMisses::cpu.data    119215482                       # number of overall misses (Count)
system.cpu.dcache.overallMisses::total      119215482                       # number of overall misses (Count)
system.cpu.dcache.demandMissLatency::cpu.data 3650813974000                       # number of demand (read+write) miss ticks (Tick)
system.cpu.dcache.demandMissLatency::total 3650813974000                       # number of demand (read+write) miss ticks (Tick)
system.cpu.dcache.overallMissLatency::cpu.data 3650813974000                       # number of overall miss ticks (Tick)
system.cpu.dcache.overallMissLatency::total 3650813974000                       # number of overall miss ticks (Tick)
system.cpu.dcache.demandAccesses::cpu.data    388288615                       # number of demand (read+write) accesses (Count)
system.cpu.dcache.demandAccesses::total     388288615                       # number of demand (read+write) accesses (Count)
system.cpu.dcache.overallAccesses::cpu.data    388288615                       # number of overall (read+write) accesses (Count)
system.cpu.dcache.overallAccesses::total    388288615                       # number of overall (read+write) accesses (Count)
system.cpu.dcache.demandMissRate::cpu.data     0.307028                       # miss rate for demand accesses (Ratio)
system.cpu.dcache.demandMissRate::total      0.307028                       # miss rate for demand accesses (Ratio)
system.cpu.dcache.overallMissRate::cpu.data     0.307028                       # miss rate for overall accesses (Ratio)
system.cpu.dcache.overallMissRate::total     0.307028                       # miss rate for overall accesses (Ratio)
system.cpu.dcache.demandAvgMissLatency::cpu.data 30623.656531                       # average overall miss latency in ticks ((Tick/Count))
system.cpu.dcache.demandAvgMissLatency::total 30623.656531                       # average overall miss latency in ticks ((Tick/Count))
system.cpu.dcache.overallAvgMissLatency::cpu.data 30623.656531                       # average overall miss latency ((Tick/Count))
system.cpu.dcache.overallAvgMissLatency::total 30623.656531                       # average overall miss latency ((Tick/Count))
system.cpu.dcache.blockedCycles::no_mshrs            0                       # number of cycles access was blocked (Cycle)
system.cpu.dcache.blockedCycles::no_targets            0                       # number of cycles access was blocked (Cycle)
system.cpu.dcache.blockedCauses::no_mshrs            0                       # number of times access was blocked (Count)
system.cpu.dcache.blockedCauses::no_targets            0                       # number of times access was blocked (Count)
system.cpu.dcache.avgBlocked::no_mshrs            nan                       # average number of cycles each access was blocked ((Cycle/Count))
system.cpu.dcache.avgBlocked::no_targets          nan                       # average number of cycles each access was blocked ((Cycle/Count))
system.cpu.dcache.writebacks::writebacks     50210876                       # number of writebacks (Count)
system.cpu.dcache.writebacks::total          50210876                       # number of writebacks (Count)
system.cpu.dcache.demandMshrHits::cpu.data      6000119                       # number of demand (read+write) MSHR hits (Count)
system.cpu.dcache.demandMshrHits::total       6000119                       # number of demand (read+write) MSHR hits (Count)
system.cpu.dcache.overallMshrHits::cpu.data      6000119                       # number of overall MSHR hits (Count)
system.cpu.dcache.overallMshrHits::total      6000119                       # number of overall MSHR hits (Count)
system.cpu.dcache.demandMshrMisses::cpu.data    113215363                       # number of demand (read+write) MSHR misses (Count)
system.cpu.dcache.demandMshrMisses::total    113215363                       # number of demand (read+write) MSHR misses (Count)
system.cpu.dcache.overallMshrMisses::cpu.data    113215363                       # number of overall MSHR misses (Count)
system.cpu.dcache.overallMshrMisses::total    113215363                       # number of overall MSHR misses (Count)
system.cpu.dcache.demandMshrMissLatency::cpu.data 3207151914000                       # number of demand (read+write) MSHR miss ticks (Tick)
system.cpu.dcache.demandMshrMissLatency::total 3207151914000                       # number of demand (read+write) MSHR miss ticks (Tick)
system.cpu.dcache.overallMshrMissLatency::cpu.data 3207151914000                       # number of overall MSHR miss ticks (Tick)
system.cpu.dcache.overallMshrMissLatency::total 3207151914000                       # number of overall MSHR miss ticks (Tick)
system.cpu.dcache.demandMshrMissRate::cpu.data     0.291575                       # mshr miss ratio for demand accesses (Ratio)
system.cpu.dcache.demandMshrMissRate::total     0.291575                       # mshr miss ratio for demand accesses (Ratio)
system.cpu.dcache.overallMshrMissRate::cpu.data     0.291575                       # mshr miss ratio for overall accesses (Ratio)
system.cpu.dcache.overallMshrMissRate::total     0.291575                       # mshr miss ratio for overall accesses (Ratio)
system.cpu.dcache.demandAvgMshrMissLatency::cpu.data 28327.886154                       # average overall mshr miss latency ((Tick/Count))
system.cpu.dcache.demandAvgMshrMissLatency::total 28327.886154                       # average overall mshr miss latency ((Tick/Count))
system.cpu.dcache.overallAvgMshrMissLatency::cpu.data 28327.886154                       # average overall mshr miss latency ((Tick/Count))
system.cpu.dcache.overallAvgMshrMissLatency::total 28327.886154                       # average overall mshr miss latency ((Tick/Count))
system.cpu.dcache.replacements              113214339                       # number of replacements (Count)
system.cpu.dcache.ReadReq.hits::cpu.data    186062008                       # number of ReadReq hits (Count)
system.cpu.dcache.ReadReq.hits::total       186062008                       # number of ReadReq hits (Count)
system.cpu.dcache.ReadReq.misses::cpu.data     64212235                       # number of ReadReq misses (Count)
system.cpu.dcache.ReadReq.misses::total      64212235                       # number of ReadReq misses (Count)
system.cpu.dcache.ReadReq.missLatency::cpu.data 1888717326000                       # number of ReadReq miss ticks (Tick)
system.cpu.dcache.ReadReq.missLatency::total 1888717326000                       # number of ReadReq miss ticks (Tick)
system.cpu.dcache.ReadReq.accesses::cpu.data    250274243                       # number of ReadReq accesses(hits+misses) (Count)
system.cpu.dcache.ReadReq.accesses::total    250274243                       # number of ReadReq accesses(hits+misses) (Count)
system.cpu.dcache.ReadReq.missRate::cpu.data     0.256567                       # miss rate for ReadReq accesses (Ratio)
system.cpu.dcache.ReadReq.missRate::total     0.256567                       # miss rate for ReadReq accesses (Ratio)
system.cpu.dcache.ReadReq.avgMissLatency::cpu.data 29413.667442                       # average ReadReq miss latency ((Tick/Count))
system.cpu.dcache.ReadReq.avgMissLatency::total 29413.667442                       # average ReadReq miss latency ((Tick/Count))
system.cpu.dcache.ReadReq.mshrHits::cpu.data            8                       # number of ReadReq MSHR hits (Count)
system.cpu.dcache.ReadReq.mshrHits::total            8                       # number of ReadReq MSHR hits (Count)
system.cpu.dcache.ReadReq.mshrMisses::cpu.data     64212227                       # number of ReadReq MSHR misses (Count)
system.cpu.dcache.ReadReq.mshrMisses::total     64212227                       # number of ReadReq MSHR misses (Count)
system.cpu.dcache.ReadReq.mshrMissLatency::cpu.data 1760292408000                       # number of ReadReq MSHR miss ticks (Tick)
system.cpu.dcache.ReadReq.mshrMissLatency::total 1760292408000                       # number of ReadReq MSHR miss ticks (Tick)
system.cpu.dcache.ReadReq.mshrMissRate::cpu.data     0.256567                       # mshr miss rate for ReadReq accesses (Ratio)
system.cpu.dcache.ReadReq.mshrMissRate::total     0.256567                       # mshr miss rate for ReadReq accesses (Ratio)
system.cpu.dcache.ReadReq.avgMshrMissLatency::cpu.data 27413.663881                       # average ReadReq mshr miss latency ((Tick/Count))
system.cpu.dcache.ReadReq.avgMshrMissLatency::total 27413.663881                       # average ReadReq mshr miss latency ((Tick/Count))
system.cpu.dcache.WriteReq.hits::cpu.data     83011125                       # number of WriteReq hits (Count)
system.cpu.dcache.WriteReq.hits::total       83011125                       # number of WriteReq hits (Count)
system.cpu.dcache.WriteReq.misses::cpu.data     55003247                       # number of WriteReq misses (Count)
system.cpu.dcache.WriteReq.misses::total     55003247                       # number of WriteReq misses (Count)
system.cpu.dcache.WriteReq.missLatency::cpu.data 1762096648000                       # number of WriteReq miss ticks (Tick)
system.cpu.dcache.WriteReq.missLatency::total 1762096648000                       # number of WriteReq miss ticks (Tick)
system.cpu.dcache.WriteReq.accesses::cpu.data    138014372                       # number of WriteReq accesses(hits+misses) (Count)
system.cpu.dcache.WriteReq.accesses::total    138014372                       # number of WriteReq accesses(hits+misses) (Count)
system.cpu.dcache.WriteReq.missRate::cpu.data     0.398533                       # miss rate for WriteReq accesses (Ratio)
system.cpu.dcache.WriteReq.missRate::total     0.398533                       # miss rate for WriteReq accesses (Ratio)
system.cpu.dcache.WriteReq.avgMissLatency::cpu.data 32036.229570                       # average WriteReq miss latency ((Tick/Count))
system.cpu.dcache.WriteReq.avgMissLatency::total 32036.229570                       # average WriteReq miss latency ((Tick/Count))
system.cpu.dcache.WriteReq.mshrHits::cpu.data      6000111                       # number of WriteReq MSHR hits (Count)
system.cpu.dcache.WriteReq.mshrHits::total      6000111                       # number of WriteReq MSHR hits (Count)
system.cpu.dcache.WriteReq.mshrMisses::cpu.data     49003136                       # number of WriteReq MSHR misses (Count)
system.cpu.dcache.WriteReq.mshrMisses::total     49003136                       # number of WriteReq MSHR misses (Count)
system.cpu.dcache.WriteReq.mshrMissLatency::cpu.data 1446859506000                       # number of WriteReq MSHR miss ticks (Tick)
system.cpu.dcache.WriteReq.mshrMissLatency::total 1446859506000                       # number of WriteReq MSHR miss ticks (Tick)
system.cpu.dcache.WriteReq.mshrMissRate::cpu.data     0.355058                       # mshr miss rate for WriteReq accesses (Ratio)
system.cpu.dcache.WriteReq.mshrMissRate::total     0.355058                       # mshr miss rate for WriteReq accesses (Ratio)
system.cpu.dcache.WriteReq.avgMshrMissLatency::cpu.data 29525.855366                       # average WriteReq mshr miss latency ((Tick/Count))
system.cpu.dcache.WriteReq.avgMshrMissLatency::total 29525.855366                       # average WriteReq mshr miss latency ((Tick/Count))
system.cpu.dcache.power_state.pwrStateResidencyTicks::UNDEFINED 3379205231000                       # Cumulative time (in ticks) in various power states (Tick)
system.cpu.dcache.tags.tagsInUse          1023.994269                       # Average ticks per tags in use ((Tick/Count))
system.cpu.dcache.tags.totalRefs            382288496                       # Total number of references to valid blocks. (Count)
system.cpu.dcache.tags.sampledRefs          113215363                       # Sample count of references to valid blocks. (Count)
system.cpu.dcache.tags.avgRefs               3.376649                       # Average number of references to valid blocks. ((Count/Count))
system.cpu.dcache.tags.warmupTick              712000                       # The tick when the warmup percentage was hit. (Tick)
system.cpu.dcache.tags.occupancies::cpu.data  1023.994269                       # Average occupied blocks per tick, per requestor ((Count/Tick))
system.cpu.dcache.tags.avgOccs::cpu.data     0.999994                       # Average percentage of cache occupancy ((Ratio/Tick))
system.cpu.dcache.tags.avgOccs::total        0.999994                       # Average percentage of cache occupancy ((Ratio/Tick))
system.cpu.dcache.tags.occupanciesTaskId::1024         1024                       # Occupied blocks per task id (Count)
system.cpu.dcache.tags.ageTaskId_1024::0           12                       # Occupied blocks per task id, per block age (Count)
system.cpu.dcache.tags.ageTaskId_1024::1          493                       # Occupied blocks per task id, per block age (Count)
system.cpu.dcache.tags.ageTaskId_1024::2           10                       # Occupied blocks per task id, per block age (Count)
system.cpu.dcache.tags.ageTaskId_1024::4          509                       # Occupied blocks per task id, per block age (Count)
system.cpu.dcache.tags.ratioOccsTaskId::1024            1                       # Ratio of occupied blocks and all blocks, per task id (Ratio)
system.cpu.dcache.tags.tagAccesses          889792593                       # Number of tag accesses (Count)
system.cpu.dcache.tags.dataAccesses         889792593                       # Number of data accesses (Count)
system.cpu.dcache.tags.power_state.pwrStateResidencyTicks::UNDEFINED 3379205231000                       # Cumulative time (in ticks) in various power states (Tick)
system.cpu.executeStats0.numInsts                   0                       # Number of executed instructions (Count)
system.cpu.executeStats0.numNop                     0                       # Number of nop insts executed (Count)
system.cpu.executeStats0.numBranches                0                       # Number of branches executed (Count)
system.cpu.executeStats0.numLoadInsts               0                       # Number of load instructions executed (Count)
system.cpu.executeStats0.numStoreInsts              0                       # Number of stores executed (Count)
system.cpu.executeStats0.instRate                   0                       # Inst execution rate ((Count/Cycle))
system.cpu.executeStats0.numFpRegWrites             0                       # Number of times the floating registers were written (Count)
system.cpu.executeStats0.numMemRefs                 0                       # Number of memory refs (Count)
system.cpu.executeStats0.numVecAluAccesses            0                       # Number of vector alu accesses (Count)
system.cpu.executeStats0.numDiscardedOps         7888                       # Number of ops (including micro ops) which were discarded before commit (Count)
system.cpu.fetch2.intInstructions           780098638                       # Number of integer instructions successfully decoded (Count)
system.cpu.fetch2.fpInstructions             56004302                       # Number of floating point instructions successfully decoded (Count)
system.cpu.fetch2.vecInstructions                   0                       # Number of SIMD instructions successfully decoded (Count)
system.cpu.fetch2.loadInstructions          295025911                       # Number of memory load instructions successfully decoded (Count)
system.cpu.fetch2.storeInstructions         138016842                       # Number of memory store instructions successfully decoded (Count)
system.cpu.fetch2.amoInstructions                   0                       # Number of memory atomic instructions successfully decoded (Count)
system.cpu.fetchStats0.numInsts                     0                       # Number of instructions fetched (thread level) (Count)
system.cpu.fetchStats0.numOps                       0                       # Number of ops (including micro ops) fetched (thread level) (Count)
system.cpu.fetchStats0.fetchRate                    0                       # Number of inst fetches per cycle ((Count/Cycle))
system.cpu.fetchStats0.branchRate                   0                       # Number of branch fetches per cycle (Ratio)
system.cpu.fetchStats0.numFetchSuspends             0                       # Number of times Execute suspended instruction fetching (Count)
system.cpu.icache.demandHits::cpu.inst      245046926                       # number of demand (read+write) hits (Count)
system.cpu.icache.demandHits::total         245046926                       # number of demand (read+write) hits (Count)
system.cpu.icache.overallHits::cpu.inst     245046926                       # number of overall hits (Count)
system.cpu.icache.overallHits::total        245046926                       # number of overall hits (Count)
system.cpu.icache.demandMisses::cpu.inst         1930                       # number of demand (read+write) misses (Count)
system.cpu.icache.demandMisses::total            1930                       # number of demand (read+write) misses (Count)
system.cpu.icache.overallMisses::cpu.inst         1930                       # number of overall misses (Count)
system.cpu.icache.overallMisses::total           1930                       # number of overall misses (Count)
system.cpu.icache.demandMissLatency::cpu.inst    100961000                       # number of demand (read+write) miss ticks (Tick)
system.cpu.icache.demandMissLatency::total    100961000                       # number of demand (read+write) miss ticks (Tick)
system.cpu.icache.overallMissLatency::cpu.inst    100961000                       # number of overall miss ticks (Tick)
system.cpu.icache.overallMissLatency::total    100961000                       # number of overall miss ticks (Tick)
system.cpu.icache.demandAccesses::cpu.inst    245048856                       # number of demand (read+write) accesses (Count)
system.cpu.icache.demandAccesses::total     245048856                       # number of demand (read+write) accesses (Count)
system.cpu.icache.overallAccesses::cpu.inst    245048856                       # number of overall (read+write) accesses (Count)
system.cpu.icache.overallAccesses::total    245048856                       # number of overall (read+write) accesses (Count)
system.cpu.icache.demandMissRate::cpu.inst     0.000008                       # miss rate for demand accesses (Ratio)
system.cpu.icache.demandMissRate::total      0.000008                       # miss rate for demand accesses (Ratio)
system.cpu.icache.overallMissRate::cpu.inst     0.000008                       # miss rate for overall accesses (Ratio)
system.cpu.icache.overallMissRate::total     0.000008                       # miss rate for overall accesses (Ratio)
system.cpu.icache.demandAvgMissLatency::cpu.inst 52311.398964                       # average overall miss latency in ticks ((Tick/Count))
system.cpu.icache.demandAvgMissLatency::total 52311.398964                       # average overall miss latency in ticks ((Tick/Count))
system.cpu.icache.overallAvgMissLatency::cpu.inst 52311.398964                       # average overall miss latency ((Tick/Count))
system.cpu.icache.overallAvgMissLatency::total 52311.398964                       # average overall miss latency ((Tick/Count))
system.cpu.icache.blockedCycles::no_mshrs            0                       # number of cycles access was blocked (Cycle)
system.cpu.icache.blockedCycles::no_targets            0                       # number of cycles access was blocked (Cycle)
system.cpu.icache.blockedCauses::no_mshrs            0                       # number of times access was blocked (Count)
system.cpu.icache.blockedCauses::no_targets            0                       # number of times access was blocked (Count)
system.cpu.icache.avgBlocked::no_mshrs            nan                       # average number of cycles each access was blocked ((Cycle/Count))
system.cpu.icache.avgBlocked::no_targets          nan                       # average number of cycles each access was blocked ((Cycle/Count))
system.cpu.icache.demandMshrMisses::cpu.inst         1930                       # number of demand (read+write) MSHR misses (Count)
system.cpu.icache.demandMshrMisses::total         1930                       # number of demand (read+write) MSHR misses (Count)
system.cpu.icache.overallMshrMisses::cpu.inst         1930                       # number of overall MSHR misses (Count)
system.cpu.icache.overallMshrMisses::total         1930                       # number of overall MSHR misses (Count)
system.cpu.icache.demandMshrMissLatency::cpu.inst     97101000                       # number of demand (read+write) MSHR miss ticks (Tick)
system.cpu.icache.demandMshrMissLatency::total     97101000                       # number of demand (read+write) MSHR miss ticks (Tick)
system.cpu.icache.overallMshrMissLatency::cpu.inst     97101000                       # number of overall MSHR miss ticks (Tick)
system.cpu.icache.overallMshrMissLatency::total     97101000                       # number of overall MSHR miss ticks (Tick)
system.cpu.icache.demandMshrMissRate::cpu.inst     0.000008                       # mshr miss ratio for demand accesses (Ratio)
system.cpu.icache.demandMshrMissRate::total     0.000008                       # mshr miss ratio for demand accesses (Ratio)
system.cpu.icache.overallMshrMissRate::cpu.inst     0.000008                       # mshr miss ratio for overall accesses (Ratio)
system.cpu.icache.overallMshrMissRate::total     0.000008                       # mshr miss ratio for overall accesses (Ratio)
system.cpu.icache.demandAvgMshrMissLatency::cpu.inst 50311.398964                       # average overall mshr miss latency ((Tick/Count))
system.cpu.icache.demandAvgMshrMissLatency::total 50311.398964                       # average overall mshr miss latency ((Tick/Count))
system.cpu.icache.overallAvgMshrMissLatency::cpu.inst 50311.398964                       # average overall mshr miss latency ((Tick/Count))
system.cpu.icache.overallAvgMshrMissLatency::total 50311.398964                       # average overall mshr miss latency ((Tick/Count))
system.cpu.icache.replacements                   1677                       # number of replacements (Count)
system.cpu.icache.ReadReq.hits::cpu.inst    245046926                       # number of ReadReq hits (Count)
system.cpu.icache.ReadReq.hits::total       245046926                       # number of ReadReq hits (Count)
system.cpu.icache.ReadReq.misses::cpu.inst         1930                       # number of ReadReq misses (Count)
system.cpu.icache.ReadReq.misses::total          1930                       # number of ReadReq misses (Count)
system.cpu.icache.ReadReq.missLatency::cpu.inst    100961000                       # number of ReadReq miss ticks (Tick)
system.cpu.icache.ReadReq.missLatency::total    100961000                       # number of ReadReq miss ticks (Tick)
system.cpu.icache.ReadReq.accesses::cpu.inst    245048856                       # number of ReadReq accesses(hits+misses) (Count)
system.cpu.icache.ReadReq.accesses::total    245048856                       # number of ReadReq accesses(hits+misses) (Count)
system.cpu.icache.ReadReq.missRate::cpu.inst     0.000008                       # miss rate for ReadReq accesses (Ratio)
system.cpu.icache.ReadReq.missRate::total     0.000008                       # miss rate for ReadReq accesses (Ratio)
system.cpu.icache.ReadReq.avgMissLatency::cpu.inst 52311.398964                       # average ReadReq miss latency ((Tick/Count))
system.cpu.icache.ReadReq.avgMissLatency::total 52311.398964                       # average ReadReq miss latency ((Tick/Count))
system.cpu.icache.ReadReq.mshrMisses::cpu.inst         1930                       # number of ReadReq MSHR misses (Count)
system.cpu.icache.ReadReq.mshrMisses::total         1930                       # number of ReadReq MSHR misses (Count)
system.cpu.icache.ReadReq.mshrMissLatency::cpu.inst     97101000                       # number of ReadReq MSHR miss ticks (Tick)
system.cpu.icache.ReadReq.mshrMissLatency::total     97101000                       # number of ReadReq MSHR miss ticks (Tick)
system.cpu.icache.ReadReq.mshrMissRate::cpu.inst     0.000008                       # mshr miss rate for ReadReq accesses (Ratio)
system.cpu.icache.ReadReq.mshrMissRate::total     0.000008                       # mshr miss rate for ReadReq accesses (Ratio)
system.cpu.icache.ReadReq.avgMshrMissLatency::cpu.inst 50311.398964                       # average ReadReq mshr miss latency ((Tick/Count))
system.cpu.icache.ReadReq.avgMshrMissLatency::total 50311.398964                       # average ReadReq mshr miss latency ((Tick/Count))
system.cpu.icache.power_state.pwrStateResidencyTicks::UNDEFINED 3379205231000                       # Cumulative time (in ticks) in various power states (Tick)
system.cpu.icache.tags.tagsInUse           226.442099                       # Average ticks per tags in use ((Tick/Count))
system.cpu.icache.tags.totalRefs            245048856                       # Total number of references to valid blocks. (Count)
system.cpu.icache.tags.sampledRefs               1930                       # Sample count of references to valid blocks. (Count)
system.cpu.icache.tags.avgRefs           126968.319171                       # Average number of references to valid blocks. ((Count/Count))
system.cpu.icache.tags.warmupTick              108000                       # The tick when the warmup percentage was hit. (Tick)
system.cpu.icache.tags.occupancies::cpu.inst   226.442099                       # Average occupied blocks per tick, per requestor ((Count/Tick))
system.cpu.icache.tags.avgOccs::cpu.inst     0.884539                       # Average percentage of cache occupancy ((Ratio/Tick))
system.cpu.icache.tags.avgOccs::total        0.884539                       # Average percentage of cache occupancy ((Ratio/Tick))
system.cpu.icache.tags.occupanciesTaskId::1024          253                       # Occupied blocks per task id (Count)
system.cpu.icache.tags.ageTaskId_1024::0           69                       # Occupied blocks per task id, per block age (Count)
system.cpu.icache.tags.ageTaskId_1024::1           49                       # Occupied blocks per task id, per block age (Count)
system.cpu.icache.tags.ageTaskId_1024::4          135                       # Occupied blocks per task id, per block age (Count)
system.cpu.icache.tags.ratioOccsTaskId::1024     0.988281                       # Ratio of occupied blocks and all blocks, per task id (Ratio)
system.cpu.icache.tags.tagAccesses          490099642                       # Number of tag accesses (Count)
system.cpu.icache.tags.dataAccesses         490099642                       # Number of data accesses (Count)
system.cpu.icache.tags.power_state.pwrStateResidencyTicks::UNDEFINED 3379205231000                       # Cumulative time (in ticks) in various power states (Tick)
system.cpu.mmu.dtb.readHits                         0                       # read hits (Count)
system.cpu.mmu.dtb.readMisses                       0                       # read misses (Count)
system.cpu.mmu.dtb.readAccesses                     0                       # read accesses (Count)
system.cpu.mmu.dtb.writeHits                        0                       # write hits (Count)
system.cpu.mmu.dtb.writeMisses                      0                       # write misses (Count)
system.cpu.mmu.dtb.writeAccesses                    0                       # write accesses (Count)
system.cpu.mmu.dtb.hits                             0                       # Total TLB (read and write) hits (Count)
system.cpu.mmu.dtb.misses                           0                       # Total TLB (read and write) misses (Count)
system.cpu.mmu.dtb.accesses                         0                       # Total TLB (read and write) accesses (Count)
system.cpu.mmu.dtb.walker.num_4kb_walks             0                       # Completed page walks with 4KB pages (Count)
system.cpu.mmu.dtb.walker.num_64kb_walks            0                       # Completed page walks with 64KB pages (Count)
system.cpu.mmu.dtb.walker.num_2mb_walks             0                       # Completed page walks with 2MB pages (Count)
system.cpu.mmu.dtb.walker.power_state.pwrStateResidencyTicks::UNDEFINED 3379205231000                       # Cumulative time (in ticks) in various power states (Tick)
system.cpu.mmu.itb.readHits                         0                       # read hits (Count)
system.cpu.mmu.itb.readMisses                       0                       # read misses (Count)
system.cpu.mmu.itb.readAccesses                     0                       # read accesses (Count)
system.cpu.mmu.itb.writeHits                        0                       # write hits (Count)
system.cpu.mmu.itb.writeMisses                      0                       # write misses (Count)
system.cpu.mmu.itb.writeAccesses                    0                       # write accesses (Count)
system.cpu.mmu.itb.hits                             0                       # Total TLB (read and write) hits (Count)
system.cpu.mmu.itb.misses                           0                       # Total TLB (read and write) misses (Count)
system.cpu.mmu.itb.accesses                         0                       # Total TLB (read and write) accesses (Count)
system.cpu.mmu.itb.walker.num_4kb_walks             0                       # Completed page walks with 4KB pages (Count)
system.cpu.mmu.itb.walker.num_64kb_walks            0                       # Completed page walks with 64KB pages (Count)
system.cpu.mmu.itb.walker.num_2mb_walks             0                       # Completed page walks with 2MB pages (Count)
system.cpu.mmu.itb.walker.power_state.pwrStateResidencyTicks::UNDEFINED 3379205231000                       # Cumulative time (in ticks) in various power states (Tick)
system.cpu.power_state.pwrStateResidencyTicks::ON 3379205231000                       # Cumulative time (in ticks) in various power states (Tick)
system.cpu.thread_0.numInsts               1272119747                       # Number of Instructions committed (Count)
system.cpu.thread_0.numOps                 1272119747                       # Number of Ops committed (Count)
system.cpu.thread_0.numMemRefs                      0                       # Number of Memory References (Count)
system.cpu.workload.numSyscalls                   495                       # Number of system calls (Count)
system.l2bus.transDist::ReadResp             64214157                       # Transaction distribution (Count)
system.l2bus.transDist::WritebackDirty      100194953                       # Transaction distribution (Count)
system.l2bus.transDist::CleanEvict          126116811                       # Transaction distribution (Count)
system.l2bus.transDist::HardPFReq           129237490                       # Transaction distribution (Count)
system.l2bus.transDist::ReadExReq            49003136                       # Transaction distribution (Count)
system.l2bus.transDist::ReadExResp           49003136                       # Transaction distribution (Count)
system.l2bus.transDist::ReadSharedReq        64214157                       # Transaction distribution (Count)
system.l2bus.pktCount_system.cpu.icache.mem_side_port::system.l2cache.cpu_side_port         5537                       # Packet count per connected requestor and responder (Count)
system.l2bus.pktCount_system.cpu.dcache.mem_side_port::system.l2cache.cpu_side_port    339645065                       # Packet count per connected requestor and responder (Count)
system.l2bus.pktCount::total                339650602                       # Packet count per connected requestor and responder (Count)
system.l2bus.pktSize_system.cpu.icache.mem_side_port::system.l2cache.cpu_side_port       123520                       # Cumulative packet size per connected requestor and responder (Byte)
system.l2bus.pktSize_system.cpu.dcache.mem_side_port::system.l2cache.cpu_side_port  10459279296                       # Cumulative packet size per connected requestor and responder (Byte)
system.l2bus.pktSize::total               10459402816                       # Cumulative packet size per connected requestor and responder (Byte)
system.l2bus.snoops                         242333238                       # Total snoops (Count)
system.l2bus.snoopTraffic                  3198980928                       # Total snoop traffic (Byte)
system.l2bus.snoopFanout::samples           355550531                       # Request fanout histogram (Count)
system.l2bus.snoopFanout::mean               0.002044                       # Request fanout histogram (Count)
system.l2bus.snoopFanout::stdev              0.045169                       # Request fanout histogram (Count)
system.l2bus.snoopFanout::underflows                0      0.00%      0.00% # Request fanout histogram (Count)
system.l2bus.snoopFanout::0                 354823628     99.80%     99.80% # Request fanout histogram (Count)
system.l2bus.snoopFanout::1                    726903      0.20%    100.00% # Request fanout histogram (Count)
system.l2bus.snoopFanout::2                         0      0.00%    100.00% # Request fanout histogram (Count)
system.l2bus.snoopFanout::overflows                 0      0.00%    100.00% # Request fanout histogram (Count)
system.l2bus.snoopFanout::min_value                 0                       # Request fanout histogram (Count)
system.l2bus.snoopFanout::max_value                 1                       # Request fanout histogram (Count)
system.l2bus.snoopFanout::total             355550531                       # Request fanout histogram (Count)
system.l2bus.power_state.pwrStateResidencyTicks::UNDEFINED 3379205231000                       # Cumulative time (in ticks) in various power states (Tick)
system.l2bus.reqLayer0.occupancy         326855061000                       # Layer occupancy (ticks) (Tick)
system.l2bus.reqLayer0.utilization                0.1                       # Layer utilization (Ratio)
system.l2bus.respLayer0.occupancy             5790000                       # Layer occupancy (ticks) (Tick)
system.l2bus.respLayer0.utilization               0.0                       # Layer utilization (Ratio)
system.l2bus.respLayer1.occupancy        339646089000                       # Layer occupancy (ticks) (Tick)
system.l2bus.respLayer1.utilization               0.1                       # Layer utilization (Ratio)
system.l2bus.snoop_filter.totRequests       226433309                       # Total number of requests made to the snoop filter. (Count)
system.l2bus.snoop_filter.hitSingleRequests    113216017                       # Number of requests hitting in the snoop filter with a single holder of the requested data. (Count)
system.l2bus.snoop_filter.hitMultiRequests            9                       # Number of requests hitting in the snoop filter with multiple (>1) holders of the requested data. (Count)
system.l2bus.snoop_filter.totSnoops            726893                       # Total number of snoops made to the snoop filter. (Count)
system.l2bus.snoop_filter.hitSingleSnoops       726893                       # Number of snoops hitting in the snoop filter with a single holder of the requested data. (Count)
system.l2bus.snoop_filter.hitMultiSnoops            0                       # Number of snoops hitting in the snoop filter with multiple (>1) holders of the requested data. (Count)
system.l2cache.demandHits::cpu.inst              1329                       # number of demand (read+write) hits (Count)
system.l2cache.demandHits::cpu.data         107283014                       # number of demand (read+write) hits (Count)
system.l2cache.demandHits::total            107284343                       # number of demand (read+write) hits (Count)
system.l2cache.overallHits::cpu.inst             1329                       # number of overall hits (Count)
system.l2cache.overallHits::cpu.data        107283014                       # number of overall hits (Count)
system.l2cache.overallHits::total           107284343                       # number of overall hits (Count)
system.l2cache.demandMisses::cpu.inst             601                       # number of demand (read+write) misses (Count)
system.l2cache.demandMisses::cpu.data         5932349                       # number of demand (read+write) misses (Count)
system.l2cache.demandMisses::total            5932950                       # number of demand (read+write) misses (Count)
system.l2cache.overallMisses::cpu.inst            601                       # number of overall misses (Count)
system.l2cache.overallMisses::cpu.data        5932349                       # number of overall misses (Count)
system.l2cache.overallMisses::total           5932950                       # number of overall misses (Count)
system.l2cache.demandMissLatency::cpu.inst     63381000                       # number of demand (read+write) miss ticks (Tick)
system.l2cache.demandMissLatency::cpu.data 606653295000                       # number of demand (read+write) miss ticks (Tick)
system.l2cache.demandMissLatency::total  606716676000                       # number of demand (read+write) miss ticks (Tick)
system.l2cache.overallMissLatency::cpu.inst     63381000                       # number of overall miss ticks (Tick)
system.l2cache.overallMissLatency::cpu.data 606653295000                       # number of overall miss ticks (Tick)
system.l2cache.overallMissLatency::total 606716676000                       # number of overall miss ticks (Tick)
system.l2cache.demandAccesses::cpu.inst          1930                       # number of demand (read+write) accesses (Count)
system.l2cache.demandAccesses::cpu.data     113215363                       # number of demand (read+write) accesses (Count)
system.l2cache.demandAccesses::total        113217293                       # number of demand (read+write) accesses (Count)
system.l2cache.overallAccesses::cpu.inst         1930                       # number of overall (read+write) accesses (Count)
system.l2cache.overallAccesses::cpu.data    113215363                       # number of overall (read+write) accesses (Count)
system.l2cache.overallAccesses::total       113217293                       # number of overall (read+write) accesses (Count)
system.l2cache.demandMissRate::cpu.inst      0.311399                       # miss rate for demand accesses (Ratio)
system.l2cache.demandMissRate::cpu.data      0.052399                       # miss rate for demand accesses (Ratio)
system.l2cache.demandMissRate::total         0.052403                       # miss rate for demand accesses (Ratio)
system.l2cache.overallMissRate::cpu.inst     0.311399                       # miss rate for overall accesses (Ratio)
system.l2cache.overallMissRate::cpu.data     0.052399                       # miss rate for overall accesses (Ratio)
system.l2cache.overallMissRate::total        0.052403                       # miss rate for overall accesses (Ratio)
system.l2cache.demandAvgMissLatency::cpu.inst 105459.234609                       # average overall miss latency in ticks ((Tick/Count))
system.l2cache.demandAvgMissLatency::cpu.data 102261.902494                       # average overall miss latency in ticks ((Tick/Count))
system.l2cache.demandAvgMissLatency::total 102262.226380                       # average overall miss latency in ticks ((Tick/Count))
system.l2cache.overallAvgMissLatency::cpu.inst 105459.234609                       # average overall miss latency ((Tick/Count))
system.l2cache.overallAvgMissLatency::cpu.data 102261.902494                       # average overall miss latency ((Tick/Count))
system.l2cache.overallAvgMissLatency::total 102262.226380                       # average overall miss latency ((Tick/Count))
system.l2cache.blockedCycles::no_mshrs              0                       # number of cycles access was blocked (Cycle)
system.l2cache.blockedCycles::no_targets            0                       # number of cycles access was blocked (Cycle)
system.l2cache.blockedCauses::no_mshrs              0                       # number of times access was blocked (Count)
system.l2cache.blockedCauses::no_targets            0                       # number of times access was blocked (Count)
system.l2cache.avgBlocked::no_mshrs               nan                       # average number of cycles each access was blocked ((Cycle/Count))
system.l2cache.avgBlocked::no_targets             nan                       # average number of cycles each access was blocked ((Cycle/Count))
system.l2cache.writebacks::writebacks        49984077                       # number of writebacks (Count)
system.l2cache.writebacks::total             49984077                       # number of writebacks (Count)
system.l2cache.demandMshrHits::cpu.data       2494482                       # number of demand (read+write) MSHR hits (Count)
system.l2cache.demandMshrHits::total          2494482                       # number of demand (read+write) MSHR hits (Count)
system.l2cache.overallMshrHits::cpu.data      2494482                       # number of overall MSHR hits (Count)
system.l2cache.overallMshrHits::total         2494482                       # number of overall MSHR hits (Count)
[...]
system.mem_ctrl.dram.numReads::cpu.inst           601                       # Number of read requests responded to by this memory (Count)
system.mem_ctrl.dram.numReads::cpu.data       3437867                       # Number of read requests responded to by this memory (Count)
system.mem_ctrl.dram.numReads::l2cache.prefetcher    109562585                       # Number of read requests responded to by this memory (Count)
system.mem_ctrl.dram.numReads::total        113001053                       # Number of read requests responded to by this memory (Count)
system.mem_ctrl.dram.numWrites::writebacks     49984077                       # Number of write requests responded to by this memory (Count)
system.mem_ctrl.dram.numWrites::total        49984077                       # Number of write requests responded to by this memory (Count)
system.mem_ctrl.dram.bwRead::cpu.inst           11383                       # Total read bandwidth from this memory ((Byte/Second))
system.mem_ctrl.dram.bwRead::cpu.data        65111017                       # Total read bandwidth from this memory ((Byte/Second))
system.mem_ctrl.dram.bwRead::l2cache.prefetcher   2075045746                       # Total read bandwidth from this memory ((Byte/Second))
system.mem_ctrl.dram.bwRead::total         2140168145                       # Total read bandwidth from this memory ((Byte/Second))
system.mem_ctrl.dram.bwInstRead::cpu.inst        11383                       # Instruction read bandwidth from this memory ((Byte/Second))
system.mem_ctrl.dram.bwInstRead::total          11383                       # Instruction read bandwidth from this memory ((Byte/Second))
system.mem_ctrl.dram.bwWrite::writebacks    946666660                       # Write bandwidth from this memory ((Byte/Second))
system.mem_ctrl.dram.bwWrite::total         946666660                       # Write bandwidth from this memory ((Byte/Second))
system.mem_ctrl.dram.bwTotal::writebacks    946666660                       # Total bandwidth to/from this memory ((Byte/Second))
system.mem_ctrl.dram.bwTotal::cpu.inst          11383                       # Total bandwidth to/from this memory ((Byte/Second))
system.mem_ctrl.dram.bwTotal::cpu.data       65111017                       # Total bandwidth to/from this memory ((Byte/Second))
system.mem_ctrl.dram.bwTotal::l2cache.prefetcher   2075045746                       # Total bandwidth to/from this memory ((Byte/Second))
system.mem_ctrl.dram.bwTotal::total        3086834805                       # Total bandwidth to/from this memory ((Byte/Second))
system.mem_ctrl.dram.readBursts             113001024                       # Number of DRAM read bursts (Count)
system.mem_ctrl.dram.writeBursts             49984058                       # Number of DRAM write bursts (Count)
system.mem_ctrl.dram.perBankRdBursts::0       7063556                       # Per bank write bursts (Count)
system.mem_ctrl.dram.perBankRdBursts::1       7062190                       # Per bank write bursts (Count)
system.mem_ctrl.dram.perBankRdBursts::2       7060968                       # Per bank write bursts (Count)
system.mem_ctrl.dram.perBankRdBursts::3       7060724                       # Per bank write bursts (Count)
system.mem_ctrl.dram.perBankRdBursts::4       7060636                       # Per bank write bursts (Count)
system.mem_ctrl.dram.perBankRdBursts::5       7060662                       # Per bank write bursts (Count)
system.mem_ctrl.dram.perBankRdBursts::6       7061862                       # Per bank write bursts (Count)
system.mem_ctrl.dram.perBankRdBursts::7       7062847                       # Per bank write bursts (Count)
system.mem_ctrl.dram.perBankRdBursts::8       7063191                       # Per bank write bursts (Count)
system.mem_ctrl.dram.perBankRdBursts::9       7063485                       # Per bank write bursts (Count)
system.mem_ctrl.dram.perBankRdBursts::10      7063486                       # Per bank write bursts (Count)
system.mem_ctrl.dram.perBankRdBursts::11      7063482                       # Per bank write bursts (Count)
system.mem_ctrl.dram.perBankRdBursts::12      7063486                       # Per bank write bursts (Count)
system.mem_ctrl.dram.perBankRdBursts::13      7063484                       # Per bank write bursts (Count)
system.mem_ctrl.dram.perBankRdBursts::14      7063487                       # Per bank write bursts (Count)
system.mem_ctrl.dram.perBankRdBursts::15      7063478                       # Per bank write bursts (Count)
system.mem_ctrl.dram.perBankWrBursts::0       3124522                       # Per bank write bursts (Count)
system.mem_ctrl.dram.perBankWrBursts::1       3123774                       # Per bank write bursts (Count)
system.mem_ctrl.dram.perBankWrBursts::2       3123211                       # Per bank write bursts (Count)
system.mem_ctrl.dram.perBankWrBursts::3       3123045                       # Per bank write bursts (Count)
system.mem_ctrl.dram.perBankWrBursts::4       3123018                       # Per bank write bursts (Count)
system.mem_ctrl.dram.perBankWrBursts::5       3123027                       # Per bank write bursts (Count)
system.mem_ctrl.dram.perBankWrBursts::6       3123539                       # Per bank write bursts (Count)
system.mem_ctrl.dram.perBankWrBursts::7       3123904                       # Per bank write bursts (Count)
system.mem_ctrl.dram.perBankWrBursts::8       3124244                       # Per bank write bursts (Count)
system.mem_ctrl.dram.perBankWrBursts::9       3124544                       # Per bank write bursts (Count)
system.mem_ctrl.dram.perBankWrBursts::10      3124544                       # Per bank write bursts (Count)
system.mem_ctrl.dram.perBankWrBursts::11      3124544                       # Per bank write bursts (Count)
system.mem_ctrl.dram.perBankWrBursts::12      3124544                       # Per bank write bursts (Count)
system.mem_ctrl.dram.perBankWrBursts::13      3124544                       # Per bank write bursts (Count)
system.mem_ctrl.dram.perBankWrBursts::14      3124544                       # Per bank write bursts (Count)
system.mem_ctrl.dram.perBankWrBursts::15      3124510                       # Per bank write bursts (Count)
system.mem_ctrl.dram.totQLat             2701752503969                       # Total ticks spent queuing (Tick)
system.mem_ctrl.dram.totBusLat           565005120000                       # Total ticks spent in databus transfers (Tick)
system.mem_ctrl.dram.totMemAccLat        4820521703969                       # Total ticks spent from burst creation until serviced by the DRAM (Tick)
system.mem_ctrl.dram.avgQLat                 23909.10                       # Average queueing delay per DRAM burst ((Tick/Count))
system.mem_ctrl.dram.avgBusLat                5000.00                       # Average bus latency per DRAM burst ((Tick/Count))
system.mem_ctrl.dram.avgMemAccLat            42659.10                       # Average memory access latency per DRAM burst ((Tick/Count))
system.mem_ctrl.dram.readRowHits            102530012                       # Number of row buffer hits during reads (Count)
system.mem_ctrl.dram.writeRowHits            39864712                       # Number of row buffer hits during writes (Count)
system.mem_ctrl.dram.readRowHitRate             90.73                       # Row buffer hit rate for reads (Ratio)
system.mem_ctrl.dram.writeRowHitRate            79.75                       # Row buffer hit rate for writes (Ratio)
system.mem_ctrl.dram.bytesPerActivate::samples     20590346                       # Bytes accessed per row activation (Byte)
system.mem_ctrl.dram.bytesPerActivate::mean   506.598783                       # Bytes accessed per row activation (Byte)
system.mem_ctrl.dram.bytesPerActivate::gmean   349.611127                       # Bytes accessed per row activation (Byte)
system.mem_ctrl.dram.bytesPerActivate::stdev   361.493690                       # Bytes accessed per row activation (Byte)
system.mem_ctrl.dram.bytesPerActivate::0-127      2956454     14.36%     14.36% # Bytes accessed per row activation (Byte)
system.mem_ctrl.dram.bytesPerActivate::128-255      3618488     17.57%     31.93% # Bytes accessed per row activation (Byte)
system.mem_ctrl.dram.bytesPerActivate::256-383      2699749     13.11%     45.04% # Bytes accessed per row activation (Byte)
system.mem_ctrl.dram.bytesPerActivate::384-511      1955371      9.50%     54.54% # Bytes accessed per row activation (Byte)
system.mem_ctrl.dram.bytesPerActivate::512-639      1382403      6.71%     61.25% # Bytes accessed per row activation (Byte)
system.mem_ctrl.dram.bytesPerActivate::640-767      1255335      6.10%     67.35% # Bytes accessed per row activation (Byte)
system.mem_ctrl.dram.bytesPerActivate::768-895      1197945      5.82%     73.17% # Bytes accessed per row activation (Byte)
system.mem_ctrl.dram.bytesPerActivate::896-1023      1218692      5.92%     79.09% # Bytes accessed per row activation (Byte)
system.mem_ctrl.dram.bytesPerActivate::1024-1151      4305909     20.91%    100.00% # Bytes accessed per row activation (Byte)
system.mem_ctrl.dram.bytesPerActivate::total     20590346                       # Bytes accessed per row activation (Byte)
system.mem_ctrl.dram.dramBytesRead         7232065536                       # Total bytes read (Byte)
system.mem_ctrl.dram.dramBytesWritten      3198979712                       # Total bytes written (Byte)
system.mem_ctrl.dram.avgRdBW              2140.167596                       # Average DRAM read bandwidth in MiBytes/s ((Byte/Second))
system.mem_ctrl.dram.avgWrBW               946.666300                       # Average DRAM write bandwidth in MiBytes/s ((Byte/Second))
system.mem_ctrl.dram.peakBW                  12800.00                       # Theoretical peak bandwidth in MiByte/s ((Byte/Second))
system.mem_ctrl.dram.busUtil                    24.12                       # Data bus utilization in percentage (Ratio)
system.mem_ctrl.dram.busUtilRead                16.72                       # Data bus utilization in percentage for reads (Ratio)
system.mem_ctrl.dram.busUtilWrite                7.40                       # Data bus utilization in percentage for writes (Ratio)
system.mem_ctrl.dram.pageHitRate                87.37                       # Row buffer hit rate, read and write combined (Ratio)
system.mem_ctrl.dram.power_state.pwrStateResidencyTicks::UNDEFINED 3379205231000                       # Cumulative time (in ticks) in various power states (Tick)
system.mem_ctrl.dram.rank0.actEnergy      73501873200                       # Energy for activate commands per rank (pJ) (Joule)
system.mem_ctrl.dram.rank0.preEnergy      39067149330                       # Energy for precharge commands per rank (pJ) (Joule)
system.mem_ctrl.dram.rank0.readEnergy    403363197300                       # Energy for read commands per rank (pJ) (Joule)
system.mem_ctrl.dram.rank0.writeEnergy   130437568800                       # Energy for write commands per rank (pJ) (Joule)
system.mem_ctrl.dram.rank0.refreshEnergy 266751301440.000031                       # Energy for refresh commands per rank (pJ) (Joule)
system.mem_ctrl.dram.rank0.actBackEnergy 1397153153310                       # Energy for active background per rank (pJ) (Joule)
system.mem_ctrl.dram.rank0.preBackEnergy 121064784960                       # Energy for precharge background per rank (pJ) (Joule)
system.mem_ctrl.dram.rank0.actPowerDownEnergy            0                       # Energy for active power-down per rank (pJ) (Joule)
system.mem_ctrl.dram.rank0.prePowerDownEnergy            0                       # Energy for precharge power-down per rank (pJ) (Joule)
system.mem_ctrl.dram.rank0.selfRefreshEnergy            0                       # Energy for self refresh per rank (pJ) (Joule)
system.mem_ctrl.dram.rank0.totalEnergy   2431339028340                       # Total energy per rank (pJ) (Joule)
system.mem_ctrl.dram.rank0.averagePower    719.500256                       # Core power per rank (mW) (Watt)
system.mem_ctrl.dram.rank0.totalIdleTime            0                       # Total Idle time Per DRAM Rank (Tick)
system.mem_ctrl.dram.rank0.pwrStateTime::IDLE 292000322006                       # Time in different power states (Tick)
system.mem_ctrl.dram.rank0.pwrStateTime::REF 112838960000                       # Time in different power states (Tick)
system.mem_ctrl.dram.rank0.pwrStateTime::SREF            0                       # Time in different power states (Tick)
system.mem_ctrl.dram.rank0.pwrStateTime::PRE_PDN            0                       # Time in different power states (Tick)
system.mem_ctrl.dram.rank0.pwrStateTime::ACT 2974365948994                       # Time in different power states (Tick)
system.mem_ctrl.dram.rank0.pwrStateTime::ACT_PDN            0                       # Time in different power states (Tick)
system.mem_ctrl.dram.rank1.actEnergy      73513282920                       # Energy for activate commands per rank (pJ) (Joule)
system.mem_ctrl.dram.rank1.preEnergy      39073213740                       # Energy for precharge commands per rank (pJ) (Joule)
system.mem_ctrl.dram.rank1.readEnergy    403464114060                       # Energy for read commands per rank (pJ) (Joule)
system.mem_ctrl.dram.rank1.writeEnergy   130479213960                       # Energy for write commands per rank (pJ) (Joule)
system.mem_ctrl.dram.rank1.refreshEnergy 266751301440.000031                       # Energy for refresh commands per rank (pJ) (Joule)
system.mem_ctrl.dram.rank1.actBackEnergy 1396865894970                       # Energy for active background per rank (pJ) (Joule)
system.mem_ctrl.dram.rank1.preBackEnergy 121306686720                       # Energy for precharge background per rank (pJ) (Joule)
system.mem_ctrl.dram.rank1.actPowerDownEnergy            0                       # Energy for active power-down per rank (pJ) (Joule)
system.mem_ctrl.dram.rank1.prePowerDownEnergy            0                       # Energy for precharge power-down per rank (pJ) (Joule)
system.mem_ctrl.dram.rank1.selfRefreshEnergy            0                       # Energy for self refresh per rank (pJ) (Joule)
system.mem_ctrl.dram.rank1.totalEnergy   2431453707810                       # Total energy per rank (pJ) (Joule)
system.mem_ctrl.dram.rank1.averagePower    719.534193                       # Core power per rank (mW) (Watt)
system.mem_ctrl.dram.rank1.totalIdleTime            0                       # Total Idle time Per DRAM Rank (Tick)
system.mem_ctrl.dram.rank1.pwrStateTime::IDLE 292650542221                       # Time in different power states (Tick)
system.mem_ctrl.dram.rank1.pwrStateTime::REF 112838960000                       # Time in different power states (Tick)
system.mem_ctrl.dram.rank1.pwrStateTime::SREF            0                       # Time in different power states (Tick)
system.mem_ctrl.dram.rank1.pwrStateTime::PRE_PDN            0                       # Time in different power states (Tick)
system.mem_ctrl.dram.rank1.pwrStateTime::ACT 2973715728779                       # Time in different power states (Tick)
system.mem_ctrl.dram.rank1.pwrStateTime::ACT_PDN            0                       # Time in different power states (Tick)
system.mem_ctrl.power_state.pwrStateResidencyTicks::UNDEFINED 3379205231000                       # Cumulative time (in ticks) in various power states (Tick)
system.membus.transDist::ReadResp           111563399                       # Transaction distribution (Count)
system.membus.transDist::WritebackDirty      49984077                       # Transaction distribution (Count)
system.membus.transDist::CleanEvict          62984139                       # Transaction distribution (Count)
system.membus.transDist::ReadExReq            1437654                       # Transaction distribution (Count)
system.membus.transDist::ReadExResp           1437654                       # Transaction distribution (Count)
system.membus.transDist::ReadSharedReq      111563399                       # Transaction distribution (Count)
system.membus.pktCount_system.l2cache.mem_side_port::system.mem_ctrl.port    338970322                       # Packet count per connected requestor and responder (Count)
system.membus.pktSize_system.l2cache.mem_side_port::system.mem_ctrl.port  10431048320                       # Cumulative packet size per connected requestor and responder (Byte)
system.membus.snoops                                0                       # Total snoops (Count)
system.membus.snoopTraffic                          0                       # Total snoop traffic (Byte)
system.membus.snoopFanout::samples          113001053                       # Request fanout histogram (Count)
system.membus.snoopFanout::mean                     0                       # Request fanout histogram (Count)
system.membus.snoopFanout::stdev                    0                       # Request fanout histogram (Count)
system.membus.snoopFanout::underflows               0      0.00%      0.00% # Request fanout histogram (Count)
system.membus.snoopFanout::0                113001053    100.00%    100.00% # Request fanout histogram (Count)
system.membus.snoopFanout::1                        0      0.00%    100.00% # Request fanout histogram (Count)
system.membus.snoopFanout::overflows                0      0.00%    100.00% # Request fanout histogram (Count)
system.membus.snoopFanout::min_value                0                       # Request fanout histogram (Count)
system.membus.snoopFanout::max_value                0                       # Request fanout histogram (Count)
system.membus.snoopFanout::total            113001053                       # Request fanout histogram (Count)
system.membus.power_state.pwrStateResidencyTicks::UNDEFINED 3379205231000                       # Cumulative time (in ticks) in various power states (Tick)
system.membus.reqLayer0.occupancy        512127059225                       # Layer occupancy (ticks) (Tick)
system.membus.reqLayer0.utilization               0.2                       # Layer utilization (Ratio)
system.membus.respLayer0.occupancy       589375763140                       # Layer occupancy (ticks) (Tick)
system.membus.respLayer0.utilization              0.2                       # Layer utilization (Ratio)
system.membus.snoop_filter.totRequests      225969269                       # Total number of requests made to the snoop filter. (Count)
system.membus.snoop_filter.hitSingleRequests    112968216                       # Number of requests hitting in the snoop filter with a single holder of the requested data. (Count)
system.membus.snoop_filter.hitMultiRequests            0                       # Number of requests hitting in the snoop filter with multiple (>1) holders of the requested data. (Count)
system.membus.snoop_filter.totSnoops                0                       # Total number of snoops made to the snoop filter. (Count)
system.membus.snoop_filter.hitSingleSnoops            0                       # Number of snoops hitting in the snoop filter with a single holder of the requested data. (Count)
system.membus.snoop_filter.hitMultiSnoops            0                       # Number of snoops hitting in the snoop filter with multiple (>1) holders of the requested data. (Count)
system.workload.inst.arm                            0                       # number of arm instructions executed (Count)
system.workload.inst.quiesce                        0                       # number of quiesce instructions executed (Count)
system.cpu.idleCycles                      1543530847                       # Total number of cycles that the object has spent stopped (Unspecified)
system.cpu.tickCycles                      1835674384                       # Number of cycles that the object actually ticked (Unspecified)

---------- End Simulation Statistics   ----------
