
---------- Begin Simulation Statistics ----------
simSeconds                                   1.678257                       # Number of seconds simulated (Second)
simTicks                                 1678256512000                       # Number of ticks simulated (Tick)
finalTick                                1678256512000                       # Number of ticks from beginning of simulation (restored from checkpoints and never reset) (Tick)
simFreq                                  1000000000000                       # The number of ticks per simulated second ((Tick/Second))
hostSeconds                                   2078.40                       # Real time elapsed on the host (Second)
hostTickRate                                807473771                       # The number of ticks simulated per host second (ticks/s) ((Tick/Second))
hostMemory                                  405222880                       # Number of bytes of host memory used (Byte)
simInsts                                   1071113122                       # Number of instructions simulated (Count)
simOps                                     1071113122                       # Number of ops (including micro ops) simulated (Count)
hostInstRate                                   515354                       # Simulator instruction rate (inst/s) ((Count/Second))
hostOpRate                                     515354                       # Simulator op (including micro ops) rate (op/s) ((Count/Second))
system.clk_domain.clock                          1000                       # Clock period in ticks (Tick)
system.clk_domain.voltage_domain.voltage            1                       # Voltage in Volts (Volt)
system.cpu.numCycles                       1678256512                       # Number of cpu cycles simulated (Cycle)
system.cpu.cpi                               1.566834                       # CPI: cycles per instruction (core level) ((Cycle/Count))
system.cpu.ipc                               0.638230                       # IPC: instructions per cycle (core level) ((Count/Cycle))
system.cpu.numWorkItemsStarted                      0                       # Number of work items this cpu started (Count)
system.cpu.numWorkItemsCompleted                    0                       # Number of work items this cpu completed (Count)
system.cpu.branchPred.lookups_0::NoBranch          384      0.00%      0.00% # Number of BP lookups (Count)
system.cpu.branchPred.lookups_0::Return          3698      0.01%      0.01% # Number of BP lookups (Count)
system.cpu.branchPred.lookups_0::CallDirect         3233      0.01%      0.01% # Number of BP lookups (Count)
system.cpu.branchPred.lookups_0::CallIndirect           78      0.00%      0.01% # Number of BP lookups (Count)
system.cpu.branchPred.lookups_0::DirectCond     47518781     94.04%     94.06% # Number of BP lookups (Count)
system.cpu.branchPred.lookups_0::DirectUncond      3002865      5.94%    100.00% # Number of BP lookups (Count)
system.cpu.branchPred.lookups_0::IndirectCond            0      0.00%    100.00% # Number of BP lookups (Count)
system.cpu.branchPred.lookups_0::IndirectUncond           75      0.00%    100.00% # Number of BP lookups (Count)
system.cpu.branchPred.lookups_0::total       50529114                       # Number of BP lookups (Count)
system.cpu.branchPred.squashes_0::NoBranch            3      0.05%      0.05% # Number of branches that got squashed (completely removed) as an earlier branch was mispredicted. (Count)
system.cpu.branchPred.squashes_0::Return          968     16.10%     16.15% # Number of branches that got squashed (completely removed) as an earlier branch was mispredicted. (Count)
system.cpu.branchPred.squashes_0::CallDirect          545      9.06%     25.21% # Number of branches that got squashed (completely removed) as an earlier branch was mispredicted. (Count)
system.cpu.branchPred.squashes_0::CallIndirect           36      0.60%     25.81% # Number of branches that got squashed (completely removed) as an earlier branch was mispredicted. (Count)
system.cpu.branchPred.squashes_0::DirectCond         3700     61.52%     87.33% # Number of branches that got squashed (completely removed) as an earlier branch was mispredicted. (Count)
system.cpu.branchPred.squashes_0::DirectUncond          760     12.64%     99.97% # Number of branches that got squashed (completely removed) as an earlier branch was mispredicted. (Count)
system.cpu.branchPred.squashes_0::IndirectCond            0      0.00%     99.97% # Number of branches that got squashed (completely removed) as an earlier branch was mispredicted. (Count)
system.cpu.branchPred.squashes_0::IndirectUncond            2      0.03%    100.00% # Number of branches that got squashed (completely removed) as an earlier branch was mispredicted. (Count)
system.cpu.branchPred.squashes_0::total          6014                       # Number of branches that got squashed (completely removed) as an earlier branch was mispredicted. (Count)
system.cpu.branchPred.corrected_0::NoBranch          380     12.79%     12.79% # Number of branches that got corrected but not yet commited. Branches get corrected by decode or after execute. Also a branch misprediction can be detected out-of-order. Therefore, a corrected branch might not end up beeing committed in case an even earlier branch was mispredicted (Count)
system.cpu.branchPred.corrected_0::Return           10      0.34%     13.13% # Number of branches that got corrected but not yet commited. Branches get corrected by decode or after execute. Also a branch misprediction can be detected out-of-order. Therefore, a corrected branch might not end up beeing committed in case an even earlier branch was mispredicted (Count)
system.cpu.branchPred.corrected_0::CallDirect          225      7.58%     20.71% # Number of branches that got corrected but not yet commited. Branches get corrected by decode or after execute. Also a branch misprediction can be detected out-of-order. Therefore, a corrected branch might not end up beeing committed in case an even earlier branch was mispredicted (Count)
system.cpu.branchPred.corrected_0::CallIndirect           28      0.94%     21.65% # Number of branches that got corrected but not yet commited. Branches get corrected by decode or after execute. Also a branch misprediction can be detected out-of-order. Therefore, a corrected branch might not end up beeing committed in case an even earlier branch was mispredicted (Count)
system.cpu.branchPred.corrected_0::DirectCond         2130     71.72%     93.37% # Number of branches that got corrected but not yet commited. Branches get corrected by decode or after execute. Also a branch misprediction can be detected out-of-order. Therefore, a corrected branch might not end up beeing committed in case an even earlier branch was mispredicted (Count)
system.cpu.branchPred.corrected_0::DirectUncond          172      5.79%     99.16% # Number of branches that got corrected but not yet commited. Branches get corrected by decode or after execute. Also a branch misprediction can be detected out-of-order. Therefore, a corrected branch might not end up beeing committed in case an even earlier branch was mispredicted (Count)
system.cpu.branchPred.corrected_0::IndirectCond            0      0.00%     99.16% # Number of branches that got corrected but not yet commited. Branches get corrected by decode or after execute. Also a branch misprediction can be detected out-of-order. Therefore, a corrected branch might not end up beeing committed in case an even earlier branch was mispredicted (Count)
system.cpu.branchPred.corrected_0::IndirectUncond           25      0.84%    100.00% # Number of branches that got corrected but not yet commited. Branches get corrected by decode or after execute. Also a branch misprediction can be detected out-of-order. Therefore, a corrected branch might not end up beeing committed in case an even earlier branch was mispredicted (Count)
system.cpu.branchPred.corrected_0::total         2970                       # Number of branches that got corrected but not yet commited. Branches get corrected by decode or after execute. Also a branch misprediction can be detected out-of-order. Therefore, a corrected branch might not end up beeing committed in case an even earlier branch was mispredicted (Count)
system.cpu.branchPred.earlyResteers_0::NoBranch            0                       # Number of branches that got redirected after decode. (Count)
system.cpu.branchPred.earlyResteers_0::Return            0                       # Number of branches that got redirected after decode. (Count)
system.cpu.branchPred.earlyResteers_0::CallDirect            0                       # Number of branches that got redirected after decode. (Count)
system.cpu.branchPred.earlyResteers_0::CallIndirect            0                       # Number of branches that got redirected after decode. (Count)
system.cpu.branchPred.earlyResteers_0::DirectCond            0                       # Number of branches that got redirected after decode. (Count)
system.cpu.branchPred.earlyResteers_0::DirectUncond            0                       # Number of branches that got redirected after decode. (Count)
system.cpu.branchPred.earlyResteers_0::IndirectCond            0                       # Number of branches that got redirected after decode. (Count)
system.cpu.branchPred.earlyResteers_0::IndirectUncond            0                       # Number of branches that got redirected after decode. (Count)
system.cpu.branchPred.earlyResteers_0::total            0                       # Number of branches that got redirected after decode. (Count)
system.cpu.branchPred.committed_0::NoBranch          380      0.00%      0.00% # Number of branches finally committed  (Count)
system.cpu.branchPred.committed_0::Return         2730      0.01%      0.01% # Number of branches finally committed  (Count)
system.cpu.branchPred.committed_0::CallDirect         2687      0.01%      0.01% # Number of branches finally committed  (Count)
system.cpu.branchPred.committed_0::CallIndirect           42      0.00%      0.01% # Number of branches finally committed  (Count)
system.cpu.branchPred.committed_0::DirectCond     47515080     94.05%     94.06% # Number of branches finally committed  (Count)
system.cpu.branchPred.committed_0::DirectUncond      3002103      5.94%    100.00% # Number of branches finally committed  (Count)
system.cpu.branchPred.committed_0::IndirectCond            0      0.00%    100.00% # Number of branches finally committed  (Count)
system.cpu.branchPred.committed_0::IndirectUncond           73      0.00%    100.00% # Number of branches finally committed  (Count)
system.cpu.branchPred.committed_0::total     50523095                       # Number of branches finally committed  (Count)
system.cpu.branchPred.mispredicted_0::NoBranch          380     12.79%     12.79% # Number of committed branches that were mispredicted. (Count)
system.cpu.branchPred.mispredicted_0::Return           10      0.34%     13.13% # Number of committed branches that were mispredicted. (Count)
system.cpu.branchPred.mispredicted_0::CallDirect          225      7.58%     20.71% # Number of committed branches that were mispredicted. (Count)
system.cpu.branchPred.mispredicted_0::CallIndirect           28      0.94%     21.65% # Number of committed branches that were mispredicted. (Count)
system.cpu.branchPred.mispredicted_0::DirectCond         2130     71.72%     93.37% # Number of committed branches that were mispredicted. (Count)
system.cpu.branchPred.mispredicted_0::DirectUncond          172      5.79%     99.16% # Number of committed branches that were mispredicted. (Count)
system.cpu.branchPred.mispredicted_0::IndirectCond            0      0.00%     99.16% # Number of committed branches that were mispredicted. (Count)
system.cpu.branchPred.mispredicted_0::IndirectUncond           25      0.84%    100.00% # Number of committed branches that were mispredicted. (Count)
system.cpu.branchPred.mispredicted_0::total         2970                       # Number of committed branches that were mispredicted. (Count)
system.cpu.branchPred.mispredictDueToPredictor_0::NoBranch            0      0.00%      0.00% # Number of committed branches that were mispredicted by the predictor. (Count)
system.cpu.branchPred.mispredictDueToPredictor_0::Return            0      0.00%      0.00% # Number of committed branches that were mispredicted by the predictor. (Count)
system.cpu.branchPred.mispredictDueToPredictor_0::CallDirect            0      0.00%      0.00% # Number of committed branches that were mispredicted by the predictor. (Count)
system.cpu.branchPred.mispredictDueToPredictor_0::CallIndirect            0      0.00%      0.00% # Number of committed branches that were mispredicted by the predictor. (Count)
system.cpu.branchPred.mispredictDueToPredictor_0::DirectCond         1508    100.00%    100.00% # Number of committed branches that were mispredicted by the predictor. (Count)
system.cpu.branchPred.mispredictDueToPredictor_0::DirectUncond            0      0.00%    100.00% # Number of committed branches that were mispredicted by the predictor. (Count)
system.cpu.branchPred.mispredictDueToPredictor_0::IndirectCond            0      0.00%    100.00% # Number of committed branches that were mispredicted by the predictor. (Count)
system.cpu.branchPred.mispredictDueToPredictor_0::IndirectUncond            0      0.00%    100.00% # Number of committed branches that were mispredicted by the predictor. (Count)
system.cpu.branchPred.mispredictDueToPredictor_0::total         1508                       # Number of committed branches that were mispredicted by the predictor. (Count)
system.cpu.branchPred.mispredictDueToBTBMiss_0::NoBranch          380     25.99%     25.99% # Number of committed branches that were mispredicted because of a BTB miss. (Count)
system.cpu.branchPred.mispredictDueToBTBMiss_0::Return           10      0.68%     26.68% # Number of committed branches that were mispredicted because of a BTB miss. (Count)
system.cpu.branchPred.mispredictDueToBTBMiss_0::CallDirect          225     15.39%     42.07% # Number of committed branches that were mispredicted because of a BTB miss. (Count)
system.cpu.branchPred.mispredictDueToBTBMiss_0::CallIndirect           28      1.92%     43.98% # Number of committed branches that were mispredicted because of a BTB miss. (Count)
system.cpu.branchPred.mispredictDueToBTBMiss_0::DirectCond          622     42.54%     86.53% # Number of committed branches that were mispredicted because of a BTB miss. (Count)
system.cpu.branchPred.mispredictDueToBTBMiss_0::DirectUncond          172     11.76%     98.29% # Number of committed branches that were mispredicted because of a BTB miss. (Count)
system.cpu.branchPred.mispredictDueToBTBMiss_0::IndirectCond            0      0.00%     98.29% # Number of committed branches that were mispredicted because of a BTB miss. (Count)
system.cpu.branchPred.mispredictDueToBTBMiss_0::IndirectUncond           25      1.71%    100.00% # Number of committed branches that were mispredicted because of a BTB miss. (Count)
system.cpu.branchPred.mispredictDueToBTBMiss_0::total         1462                       # Number of committed branches that were mispredicted because of a BTB miss. (Count)
system.cpu.branchPred.targetProvider_0::NoTarget        14033      0.03%      0.03% # The component providing the target for taken branches (Count)
system.cpu.branchPred.targetProvider_0::BTB     50511337     99.96%     99.99% # The component providing the target for taken branches (Count)
system.cpu.branchPred.targetProvider_0::RAS         3695      0.01%    100.00% # The component providing the target for taken branches (Count)
system.cpu.branchPred.targetProvider_0::Indirect           49      0.00%    100.00% # The component providing the target for taken branches (Count)
system.cpu.branchPred.targetProvider_0::total     50529114                       # The component providing the target for taken branches (Count)
system.cpu.branchPred.targetWrong_0::NoBranch         2060     79.54%     79.54% # Number of branches where the target was incorrect or not available at prediction time. (Count)
system.cpu.branchPred.targetWrong_0::Return          520     20.08%     99.61% # Number of branches where the target was incorrect or not available at prediction time. (Count)
system.cpu.branchPred.targetWrong_0::CallDirect            8      0.31%     99.92% # Number of branches where the target was incorrect or not available at prediction time. (Count)
system.cpu.branchPred.targetWrong_0::CallIndirect            2      0.08%    100.00% # Number of branches where the target was incorrect or not available at prediction time. (Count)
system.cpu.branchPred.targetWrong_0::DirectCond            0      0.00%    100.00% # Number of branches where the target was incorrect or not available at prediction time. (Count)
system.cpu.branchPred.targetWrong_0::DirectUncond            0      0.00%    100.00% # Number of branches where the target was incorrect or not available at prediction time. (Count)
system.cpu.branchPred.targetWrong_0::IndirectCond            0      0.00%    100.00% # Number of branches where the target was incorrect or not available at prediction time. (Count)
system.cpu.branchPred.targetWrong_0::IndirectUncond            0      0.00%    100.00% # Number of branches where the target was incorrect or not available at prediction time. (Count)
system.cpu.branchPred.targetWrong_0::total         2590                       # Number of branches where the target was incorrect or not available at prediction time. (Count)
system.cpu.branchPred.condPredicted          47519165                       # Number of conditional branches predicted (Count)
system.cpu.branchPred.condPredictedTaken     47508017                       # Number of conditional branches predicted as taken (Count)
system.cpu.branchPred.condIncorrect              2970                       # Number of conditional branches incorrect (Count)
system.cpu.branchPred.predTakenBTBMiss            755                       # Number of branches predicted taken but missed in BTB (Count)
system.cpu.branchPred.BTBLookups             50529114                       # Number of BTB lookups (Count)
system.cpu.branchPred.BTBUpdates                 2007                       # Number of BTB updates (Count)
system.cpu.branchPred.BTBHits                50515969                       # Number of BTB hits (Count)
system.cpu.branchPred.BTBHitRatio            0.999740                       # BTB Hit Ratio (Ratio)
system.cpu.branchPred.BTBMispredicted            1019                       # Number BTB mispredictions. No target found or target wrong (Count)
system.cpu.branchPred.indirectLookups             153                       # Number of indirect predictor lookups. (Count)
system.cpu.branchPred.indirectHits                 49                       # Number of indirect target hits. (Count)
system.cpu.branchPred.indirectMisses              104                       # Number of indirect misses. (Count)
system.cpu.branchPred.indirectMispredicted            0                       # Number of mispredicted indirect branches. (Count)
system.cpu.branchPred.btb.lookups::NoBranch          384      0.00%      0.00% # Number of BTB lookups (Count)
system.cpu.branchPred.btb.lookups::Return         3698      0.01%      0.01% # Number of BTB lookups (Count)
system.cpu.branchPred.btb.lookups::CallDirect         3233      0.01%      0.01% # Number of BTB lookups (Count)
system.cpu.branchPred.btb.lookups::CallIndirect           78      0.00%      0.01% # Number of BTB lookups (Count)
system.cpu.branchPred.btb.lookups::DirectCond     47518781     94.04%     94.06% # Number of BTB lookups (Count)
system.cpu.branchPred.btb.lookups::DirectUncond      3002865      5.94%    100.00% # Number of BTB lookups (Count)
system.cpu.branchPred.btb.lookups::IndirectCond            0      0.00%    100.00% # Number of BTB lookups (Count)
system.cpu.branchPred.btb.lookups::IndirectUncond           75      0.00%    100.00% # Number of BTB lookups (Count)
system.cpu.branchPred.btb.lookups::total     50529114                       # Number of BTB lookups (Count)
system.cpu.branchPred.btb.misses::NoBranch          384      2.92%      2.92% # Number of BTB misses (Count)
system.cpu.branchPred.btb.misses::Return         3698     28.13%     31.05% # Number of BTB misses (Count)
system.cpu.branchPred.btb.misses::CallDirect          583      4.44%     35.49% # Number of BTB misses (Count)
system.cpu.branchPred.btb.misses::CallIndirect           78      0.59%     36.08% # Number of BTB misses (Count)
system.cpu.branchPred.btb.misses::DirectCond         7689     58.49%     94.58% # Number of BTB misses (Count)
system.cpu.branchPred.btb.misses::DirectUncond          638      4.85%     99.43% # Number of BTB misses (Count)
system.cpu.branchPred.btb.misses::IndirectCond            0      0.00%     99.43% # Number of BTB misses (Count)
system.cpu.branchPred.btb.misses::IndirectUncond           75      0.57%    100.00% # Number of BTB misses (Count)
system.cpu.branchPred.btb.misses::total         13145                       # Number of BTB misses (Count)
system.cpu.branchPred.btb.updates::NoBranch            0      0.00%      0.00% # Number of BTB updates (Count)
system.cpu.branchPred.btb.updates::Return            0      0.00%      0.00% # Number of BTB updates (Count)
system.cpu.branchPred.btb.updates::CallDirect          225     11.21%     11.21% # Number of BTB updates (Count)
system.cpu.branchPred.btb.updates::CallIndirect            0      0.00%     11.21% # Number of BTB updates (Count)
system.cpu.branchPred.btb.updates::DirectCond         1610     80.22%     91.43% # Number of BTB updates (Count)
system.cpu.branchPred.btb.updates::DirectUncond          172      8.57%    100.00% # Number of BTB updates (Count)
system.cpu.branchPred.btb.updates::IndirectCond            0      0.00%    100.00% # Number of BTB updates (Count)
system.cpu.branchPred.btb.updates::IndirectUncond            0      0.00%    100.00% # Number of BTB updates (Count)
system.cpu.branchPred.btb.updates::total         2007                       # Number of BTB updates (Count)
system.cpu.branchPred.btb.mispredict::NoBranch            0      0.00%      0.00% # Number of BTB mispredictions. No target found or target wrong. (Count)
system.cpu.branchPred.btb.mispredict::Return            0      0.00%      0.00% # Number of BTB mispredictions. No target found or target wrong. (Count)
system.cpu.branchPred.btb.mispredict::CallDirect          225     11.21%     11.21% # Number of BTB mispredictions. No target found or target wrong. (Count)
system.cpu.branchPred.btb.mispredict::CallIndirect            0      0.00%     11.21% # Number of BTB mispredictions. No target found or target wrong. (Count)
system.cpu.branchPred.btb.mispredict::DirectCond         1610     80.22%     91.43% # Number of BTB mispredictions. No target found or target wrong. (Count)
system.cpu.branchPred.btb.mispredict::DirectUncond          172      8.57%    100.00% # Number of BTB mispredictions. No target found or target wrong. (Count)
system.cpu.branchPred.btb.mispredict::IndirectCond            0      0.00%    100.00% # Number of BTB mispredictions. No target found or target wrong. (Count)
system.cpu.branchPred.btb.mispredict::IndirectUncond            0      0.00%    100.00% # Number of BTB mispredictions. No target found or target wrong. (Count)
system.cpu.branchPred.btb.mispredict::total         2007                       # Number of BTB mispredictions. No target found or target wrong. (Count)
system.cpu.branchPred.btb.power_state.pwrStateResidencyTicks::UNDEFINED 1678256512000                       # Cumulative time (in ticks) in various power states (Tick)
system.cpu.branchPred.indirectBranchPred.lookups          153                       # Number of lookups (Count)
system.cpu.branchPred.indirectBranchPred.hits           49                       # Number of hits of a tag (Count)
system.cpu.branchPred.indirectBranchPred.misses          104                       # Number of misses (Count)
system.cpu.branchPred.indirectBranchPred.targetRecords           53                       # Number of targets that where recorded/installed in the cache (Count)
system.cpu.branchPred.indirectBranchPred.indirectRecords          206                       # Number of indirect branches/calls recorded in the indirect hist (Count)
system.cpu.branchPred.indirectBranchPred.speculativeOverflows            4                       # Number of times more than the allowed capacity for speculative branches/calls where in flight and destroy the path history (Count)
system.cpu.branchPred.ras.pushes                 4279                       # Number of times a PC was pushed onto the RAS (Count)
system.cpu.branchPred.ras.pops                   4279                       # Number of times a PC was poped from the RAS (Count)
system.cpu.branchPred.ras.squashes               1549                       # Number of times the stack operation was squashed due to wrong speculation. (Count)
system.cpu.branchPred.ras.used                   2730                       # Number of times the RAS is the provider (Count)
system.cpu.branchPred.ras.correct                2720                       # Number of times the RAS is the provider and the prediction is correct (Count)
system.cpu.branchPred.ras.incorrect                10                       # Number of times the RAS is the provider and the prediction is wrong (Count)
system.cpu.commitStats0.numInsts           1071113122                       # Number of instructions committed (thread level) (Count)
system.cpu.commitStats0.numOps             1071113122                       # Number of ops (including micro ops) committed (thread level) (Count)
system.cpu.commitStats0.numInstsNotNOP              0                       # Number of instructions committed excluding NOPs or prefetches (Count)
system.cpu.commitStats0.numOpsNotNOP                0                       # Number of Ops (including micro ops) Simulated (Count)
system.cpu.commitStats0.cpi                  1.566834                       # CPI: cycles per instruction (thread level) ((Cycle/Count))
system.cpu.commitStats0.ipc                  0.638230                       # IPC: instructions per cycle (thread level) ((Count/Cycle))
system.cpu.commitStats0.numMemRefs                  0                       # Number of memory references committed (Count)
system.cpu.commitStats0.numFpInsts                  0                       # Number of float instructions (Count)
system.cpu.commitStats0.numIntInsts                 0                       # Number of integer instructions (Count)
system.cpu.commitStats0.numLoadInsts                0                       # Number of load instructions (Count)
system.cpu.commitStats0.numStoreInsts               0                       # Number of store instructions (Count)
system.cpu.commitStats0.numVecInsts                 0                       # Number of vector instructions (Count)
system.cpu.commitStats0.committedInstType::No_OpClass          591      0.00%      0.00% # Class of committed instruction. (Count)
system.cpu.commitStats0.committedInstType::IntAlu    627075863     58.54%     58.54% # Class of committed instruction. (Count)
system.cpu.commitStats0.committedInstType::IntMult          530      0.00%     58.54% # Class of committed instruction. (Count)
system.cpu.commitStats0.committedInstType::IntDiv           80      0.00%     58.54% # Class of committed instruction. (Count)
system.cpu.commitStats0.committedInstType::FloatAdd     30000724      2.80%     61.35% # Class of committed instruction. (Count)
system.cpu.commitStats0.committedInstType::FloatCmp      3000363      0.28%     61.63% # Class of committed instruction. (Count)
system.cpu.commitStats0.committedInstType::FloatCvt      3000909      0.28%     61.91% # Class of committed instruction. (Count)
system.cpu.commitStats0.committedInstType::FloatMult     20000394      1.87%     63.77% # Class of committed instruction. (Count)
system.cpu.commitStats0.committedInstType::FloatMultAcc           43      0.00%     63.77% # Class of committed instruction. (Count)
system.cpu.commitStats0.committedInstType::FloatDiv           18      0.00%     63.77% # Class of committed instruction. (Count)
system.cpu.commitStats0.committedInstType::FloatMisc          424      0.00%     63.77% # Class of committed instruction. (Count)
system.cpu.commitStats0.committedInstType::FloatSqrt            0      0.00%     63.77% # Class of committed instruction. (Count)
system.cpu.commitStats0.committedInstType::SimdAdd            0      0.00%     63.77% # Class of committed instruction. (Count)
system.cpu.commitStats0.committedInstType::SimdAddAcc            0      0.00%     63.77% # Class of committed instruction. (Count)
system.cpu.commitStats0.committedInstType::SimdAlu            0      0.00%     63.77% # Class of committed instruction. (Count)
system.cpu.commitStats0.committedInstType::SimdCmp            0      0.00%     63.77% # Class of committed instruction. (Count)
system.cpu.commitStats0.committedInstType::SimdCvt            0      0.00%     63.77% # Class of committed instruction. (Count)
system.cpu.commitStats0.committedInstType::SimdMisc            0      0.00%     63.77% # Class of committed instruction. (Count)
system.cpu.commitStats0.committedInstType::SimdMult            0      0.00%     63.77% # Class of committed instruction. (Count)
system.cpu.commitStats0.committedInstType::SimdMultAcc            0      0.00%     63.77% # Class of committed instruction. (Count)
system.cpu.commitStats0.committedInstType::SimdMatMultAcc            0      0.00%     63.77% # Class of committed instruction. (Count)
system.cpu.commitStats0.committedInstType::SimdShift            0      0.00%     63.77% # Class of committed instruction. (Count)
system.cpu.commitStats0.committedInstType::SimdShiftAcc            0      0.00%     63.77% # Class of committed instruction. (Count)
system.cpu.commitStats0.committedInstType::SimdDiv            0      0.00%     63.77% # Class of committed instruction. (Count)
system.cpu.commitStats0.committedInstType::SimdSqrt            0      0.00%     63.77% # Class of committed instruction. (Count)
system.cpu.commitStats0.committedInstType::SimdFloatAdd            0      0.00%     63.77% # Class of committed instruction. (Count)
system.cpu.commitStats0.committedInstType::SimdFloatAlu            0      0.00%     63.77% # Class of committed instruction. (Count)
system.cpu.commitStats0.committedInstType::SimdFloatCmp            0      0.00%     63.77% # Class of committed instruction. (Count)
system.cpu.commitStats0.committedInstType::SimdFloatCvt            0      0.00%     63.77% # Class of committed instruction. (Count)
system.cpu.commitStats0.committedInstType::SimdFloatDiv            0      0.00%     63.77% # Class of committed instruction. (Count)
system.cpu.commitStats0.committedInstType::SimdFloatMisc            0      0.00%     63.77% # Class of committed instruction. (Count)
system.cpu.commitStats0.committedInstType::SimdFloatMult            0      0.00%     63.77% # Class of committed instruction. (Count)
system.cpu.commitStats0.committedInstType::SimdFloatMultAcc            0      0.00%     63.77% # Class of committed instruction. (Count)
system.cpu.commitStats0.committedInstType::SimdFloatMatMultAcc            0      0.00%     63.77% # Class of committed instruction. (Count)
system.cpu.commitStats0.committedInstType::SimdFloatSqrt            0      0.00%     63.77% # Class of committed instruction. (Count)
system.cpu.commitStats0.committedInstType::SimdReduceAdd            0      0.00%     63.77% # Class of committed instruction. (Count)
system.cpu.commitStats0.committedInstType::SimdReduceAlu            0      0.00%     63.77% # Class of committed instruction. (Count)
system.cpu.commitStats0.committedInstType::SimdReduceCmp            0      0.00%     63.77% # Class of committed instruction. (Count)
system.cpu.commitStats0.committedInstType::SimdFloatReduceAdd            0      0.00%     63.77% # Class of committed instruction. (Count)
system.cpu.commitStats0.committedInstType::SimdFloatReduceCmp            0      0.00%     63.77% # Class of committed instruction. (Count)
system.cpu.commitStats0.committedInstType::SimdAes            0      0.00%     63.77% # Class of committed instruction. (Count)
system.cpu.commitStats0.committedInstType::SimdAesMix            0      0.00%     63.77% # Class of committed instruction. (Count)
system.cpu.commitStats0.committedInstType::SimdSha1Hash            0      0.00%     63.77% # Class of committed instruction. (Count)
system.cpu.commitStats0.committedInstType::SimdSha1Hash2            0      0.00%     63.77% # Class of committed instruction. (Count)
system.cpu.commitStats0.committedInstType::SimdSha256Hash            0      0.00%     63.77% # Class of committed instruction. (Count)
system.cpu.commitStats0.committedInstType::SimdSha256Hash2            0      0.00%     63.77% # Class of committed instruction. (Count)
system.cpu.commitStats0.committedInstType::SimdShaSigma2            0      0.00%     63.77% # Class of committed instruction. (Count)
system.cpu.commitStats0.committedInstType::SimdShaSigma3            0      0.00%     63.77% # Class of committed instruction. (Count)
system.cpu.commitStats0.committedInstType::SimdPredAlu            0      0.00%     63.77% # Class of committed instruction. (Count)
system.cpu.commitStats0.committedInstType::Matrix            0      0.00%     63.77% # Class of committed instruction. (Count)
system.cpu.commitStats0.committedInstType::MatrixMov            0      0.00%     63.77% # Class of committed instruction. (Count)
system.cpu.commitStats0.committedInstType::MatrixOP            0      0.00%     63.77% # Class of committed instruction. (Count)
system.cpu.commitStats0.committedInstType::MemRead    197017866     18.39%     82.17% # Class of committed instruction. (Count)
system.cpu.commitStats0.committedInstType::MemWrite     47013022      4.39%     86.56% # Class of committed instruction. (Count)
system.cpu.commitStats0.committedInstType::FloatMemRead     98001752      9.15%     95.71% # Class of committed instruction. (Count)
system.cpu.commitStats0.committedInstType::FloatMemWrite     46000543      4.29%    100.00% # Class of committed instruction. (Count)
system.cpu.commitStats0.committedInstType::IprAccess            0      0.00%    100.00% # Class of committed instruction. (Count)
system.cpu.commitStats0.committedInstType::InstPrefetch            0      0.00%    100.00% # Class of committed instruction. (Count)
system.cpu.commitStats0.committedInstType::SimdUnitStrideLoad            0      0.00%    100.00% # Class of committed instruction. (Count)
system.cpu.commitStats0.committedInstType::SimdUnitStrideStore            0      0.00%    100.00% # Class of committed instruction. (Count)
system.cpu.commitStats0.committedInstType::SimdUnitStrideMaskLoad            0      0.00%    100.00% # Class of committed instruction. (Count)
system.cpu.commitStats0.committedInstType::SimdUnitStrideMaskStore            0      0.00%    100.00% # Class of committed instruction. (Count)
system.cpu.commitStats0.committedInstType::SimdStridedLoad            0      0.00%    100.00% # Class of committed instruction. (Count)
system.cpu.commitStats0.committedInstType::SimdStridedStore            0      0.00%    100.00% # Class of committed instruction. (Count)
system.cpu.commitStats0.committedInstType::SimdIndexedLoad            0      0.00%    100.00% # Class of committed instruction. (Count)
system.cpu.commitStats0.committedInstType::SimdIndexedStore            0      0.00%    100.00% # Class of committed instruction. (Count)
system.cpu.commitStats0.committedInstType::SimdWholeRegisterLoad            0      0.00%    100.00% # Class of committed instruction. (Count)
system.cpu.commitStats0.committedInstType::SimdWholeRegisterStore            0      0.00%    100.00% # Class of committed instruction. (Count)
system.cpu.commitStats0.committedInstType::SimdUnitStrideFaultOnlyFirstLoad            0      0.00%    100.00% # Class of committed instruction. (Count)
system.cpu.commitStats0.committedInstType::SimdUnitStrideSegmentedLoad            0      0.00%    100.00% # Class of committed instruction. (Count)
system.cpu.commitStats0.committedInstType::SimdUnitStrideSegmentedStore            0      0.00%    100.00% # Class of committed instruction. (Count)
system.cpu.commitStats0.committedInstType::SimdUnitStrideSegmentedFaultOnlyFirstLoad            0      0.00%    100.00% # Class of committed instruction. (Count)
system.cpu.commitStats0.committedInstType::SimdStrideSegmentedLoad            0      0.00%    100.00% # Class of committed instruction. (Count)
system.cpu.commitStats0.committedInstType::SimdStrideSegmentedStore            0      0.00%    100.00% # Class of committed instruction. (Count)
system.cpu.commitStats0.committedInstType::SimdExt            0      0.00%    100.00% # Class of committed instruction. (Count)
system.cpu.commitStats0.committedInstType::SimdFloatExt            0      0.00%    100.00% # Class of committed instruction. (Count)
system.cpu.commitStats0.committedInstType::SimdConfig            0      0.00%    100.00% # Class of committed instruction. (Count)
system.cpu.commitStats0.committedInstType::total   1071113122                       # Class of committed instruction. (Count)
system.cpu.dcache.demandHits::cpu.data      330818042                       # number of demand (read+write) hits (Count)
system.cpu.dcache.demandHits::total         330818042                       # number of demand (read+write) hits (Count)
system.cpu.dcache.overallHits::cpu.data     330818042                       # number of overall hits (Count)
system.cpu.dcache.overallHits::total        330818042                       # number of overall hits (Count)
system.cpu.dcache.demandMisses::cpu.data     14209686                       # number of demand (read+write) misses (Count)
system.cpu.dcache.demandMisses::total        14209686                       # number of demand (read+write) misses (Count)
system.cpu.dcache.overallMisses::cpu.data     14209686                       # number of overall misses (Count)
system.cpu.dcache.overallMisses::total       14209686                       # number of overall misses (Count)
system.cpu.dcache.demandMissLatency::cpu.data 229092329000                       # number of demand (read+write) miss ticks (Tick)
system.cpu.dcache.demandMissLatency::total 229092329000                       # number of demand (read+write) miss ticks (Tick)
system.cpu.dcache.overallMissLatency::cpu.data 229092329000                       # number of overall miss ticks (Tick)
system.cpu.dcache.overallMissLatency::total 229092329000                       # number of overall miss ticks (Tick)
system.cpu.dcache.demandAccesses::cpu.data    345027728                       # number of demand (read+write) accesses (Count)
system.cpu.dcache.demandAccesses::total     345027728                       # number of demand (read+write) accesses (Count)
system.cpu.dcache.overallAccesses::cpu.data    345027728                       # number of overall (read+write) accesses (Count)
system.cpu.dcache.overallAccesses::total    345027728                       # number of overall (read+write) accesses (Count)
system.cpu.dcache.demandMissRate::cpu.data     0.041184                       # miss rate for demand accesses (Ratio)
system.cpu.dcache.demandMissRate::total      0.041184                       # miss rate for demand accesses (Ratio)
system.cpu.dcache.overallMissRate::cpu.data     0.041184                       # miss rate for overall accesses (Ratio)
system.cpu.dcache.overallMissRate::total     0.041184                       # miss rate for overall accesses (Ratio)
system.cpu.dcache.demandAvgMissLatency::cpu.data 16122.265404                       # average overall miss latency in ticks ((Tick/Count))
system.cpu.dcache.demandAvgMissLatency::total 16122.265404                       # average overall miss latency in ticks ((Tick/Count))
system.cpu.dcache.overallAvgMissLatency::cpu.data 16122.265404                       # average overall miss latency ((Tick/Count))
system.cpu.dcache.overallAvgMissLatency::total 16122.265404                       # average overall miss latency ((Tick/Count))
system.cpu.dcache.blockedCycles::no_mshrs            0                       # number of cycles access was blocked (Cycle)
system.cpu.dcache.blockedCycles::no_targets            0                       # number of cycles access was blocked (Cycle)
system.cpu.dcache.blockedCauses::no_mshrs            0                       # number of times access was blocked (Count)
system.cpu.dcache.blockedCauses::no_targets            0                       # number of times access was blocked (Count)
system.cpu.dcache.avgBlocked::no_mshrs            nan                       # average number of cycles each access was blocked ((Cycle/Count))
system.cpu.dcache.avgBlocked::no_targets          nan                       # average number of cycles each access was blocked ((Cycle/Count))
system.cpu.dcache.writebacks::writebacks      5875327                       # number of writebacks (Count)
system.cpu.dcache.writebacks::total           5875327                       # number of writebacks (Count)
system.cpu.dcache.demandMshrHits::cpu.data       459145                       # number of demand (read+write) MSHR hits (Count)
system.cpu.dcache.demandMshrHits::total        459145                       # number of demand (read+write) MSHR hits (Count)
system.cpu.dcache.overallMshrHits::cpu.data       459145                       # number of overall MSHR hits (Count)
system.cpu.dcache.overallMshrHits::total       459145                       # number of overall MSHR hits (Count)
system.cpu.dcache.demandMshrMisses::cpu.data     13750541                       # number of demand (read+write) MSHR misses (Count)
system.cpu.dcache.demandMshrMisses::total     13750541                       # number of demand (read+write) MSHR misses (Count)
system.cpu.dcache.overallMshrMisses::cpu.data     13750541                       # number of overall MSHR misses (Count)
system.cpu.dcache.overallMshrMisses::total     13750541                       # number of overall MSHR misses (Count)
system.cpu.dcache.demandMshrMissLatency::cpu.data 194254894000                       # number of demand (read+write) MSHR miss ticks (Tick)
system.cpu.dcache.demandMshrMissLatency::total 194254894000                       # number of demand (read+write) MSHR miss ticks (Tick)
system.cpu.dcache.overallMshrMissLatency::cpu.data 194254894000                       # number of overall MSHR miss ticks (Tick)
system.cpu.dcache.overallMshrMissLatency::total 194254894000                       # number of overall MSHR miss ticks (Tick)
system.cpu.dcache.demandMshrMissRate::cpu.data     0.039853                       # mshr miss ratio for demand accesses (Ratio)
system.cpu.dcache.demandMshrMissRate::total     0.039853                       # mshr miss ratio for demand accesses (Ratio)
system.cpu.dcache.overallMshrMissRate::cpu.data     0.039853                       # mshr miss ratio for overall accesses (Ratio)
system.cpu.dcache.overallMshrMissRate::total     0.039853                       # mshr miss ratio for overall accesses (Ratio)
system.cpu.dcache.demandAvgMshrMissLatency::cpu.data 14127.072818                       # average overall mshr miss latency ((Tick/Count))
system.cpu.dcache.demandAvgMshrMissLatency::total 14127.072818                       # average overall mshr miss latency ((Tick/Count))
system.cpu.dcache.overallAvgMshrMissLatency::cpu.data 14127.072818                       # average overall mshr miss latency ((Tick/Count))
system.cpu.dcache.overallAvgMshrMissLatency::total 14127.072818                       # average overall mshr miss latency ((Tick/Count))
system.cpu.dcache.replacements               13749517                       # number of replacements (Count)
system.cpu.dcache.ReadReq.hits::cpu.data    244013856                       # number of ReadReq hits (Count)
system.cpu.dcache.ReadReq.hits::total       244013856                       # number of ReadReq hits (Count)
system.cpu.dcache.ReadReq.misses::cpu.data      8000308                       # number of ReadReq misses (Count)
system.cpu.dcache.ReadReq.misses::total       8000308                       # number of ReadReq misses (Count)
system.cpu.dcache.ReadReq.missLatency::cpu.data 120607932000                       # number of ReadReq miss ticks (Tick)
system.cpu.dcache.ReadReq.missLatency::total 120607932000                       # number of ReadReq miss ticks (Tick)
system.cpu.dcache.ReadReq.accesses::cpu.data    252014164                       # number of ReadReq accesses(hits+misses) (Count)
system.cpu.dcache.ReadReq.accesses::total    252014164                       # number of ReadReq accesses(hits+misses) (Count)
system.cpu.dcache.ReadReq.missRate::cpu.data     0.031745                       # miss rate for ReadReq accesses (Ratio)
system.cpu.dcache.ReadReq.missRate::total     0.031745                       # miss rate for ReadReq accesses (Ratio)
system.cpu.dcache.ReadReq.avgMissLatency::cpu.data 15075.411097                       # average ReadReq miss latency ((Tick/Count))
system.cpu.dcache.ReadReq.avgMissLatency::total 15075.411097                       # average ReadReq miss latency ((Tick/Count))
system.cpu.dcache.ReadReq.mshrHits::cpu.data            1                       # number of ReadReq MSHR hits (Count)
system.cpu.dcache.ReadReq.mshrHits::total            1                       # number of ReadReq MSHR hits (Count)
system.cpu.dcache.ReadReq.mshrMisses::cpu.data      8000307                       # number of ReadReq MSHR misses (Count)
system.cpu.dcache.ReadReq.mshrMisses::total      8000307                       # number of ReadReq MSHR misses (Count)
system.cpu.dcache.ReadReq.mshrMissLatency::cpu.data 112607613000                       # number of ReadReq MSHR miss ticks (Tick)
system.cpu.dcache.ReadReq.mshrMissLatency::total 112607613000                       # number of ReadReq MSHR miss ticks (Tick)
system.cpu.dcache.ReadReq.mshrMissRate::cpu.data     0.031745                       # mshr miss rate for ReadReq accesses (Ratio)
system.cpu.dcache.ReadReq.mshrMissRate::total     0.031745                       # mshr miss rate for ReadReq accesses (Ratio)
system.cpu.dcache.ReadReq.avgMshrMissLatency::cpu.data 14075.411481                       # average ReadReq mshr miss latency ((Tick/Count))
system.cpu.dcache.ReadReq.avgMshrMissLatency::total 14075.411481                       # average ReadReq mshr miss latency ((Tick/Count))
system.cpu.dcache.WriteReq.hits::cpu.data     86804186                       # number of WriteReq hits (Count)
system.cpu.dcache.WriteReq.hits::total       86804186                       # number of WriteReq hits (Count)
system.cpu.dcache.WriteReq.misses::cpu.data      6209378                       # number of WriteReq misses (Count)
system.cpu.dcache.WriteReq.misses::total      6209378                       # number of WriteReq misses (Count)
system.cpu.dcache.WriteReq.missLatency::cpu.data 108484397000                       # number of WriteReq miss ticks (Tick)
system.cpu.dcache.WriteReq.missLatency::total 108484397000                       # number of WriteReq miss ticks (Tick)
system.cpu.dcache.WriteReq.accesses::cpu.data     93013564                       # number of WriteReq accesses(hits+misses) (Count)
system.cpu.dcache.WriteReq.accesses::total     93013564                       # number of WriteReq accesses(hits+misses) (Count)
system.cpu.dcache.WriteReq.missRate::cpu.data     0.066758                       # miss rate for WriteReq accesses (Ratio)
system.cpu.dcache.WriteReq.missRate::total     0.066758                       # miss rate for WriteReq accesses (Ratio)
system.cpu.dcache.WriteReq.avgMissLatency::cpu.data 17471.057004                       # average WriteReq miss latency ((Tick/Count))
system.cpu.dcache.WriteReq.avgMissLatency::total 17471.057004                       # average WriteReq miss latency ((Tick/Count))
system.cpu.dcache.WriteReq.mshrHits::cpu.data       459144                       # number of WriteReq MSHR hits (Count)
system.cpu.dcache.WriteReq.mshrHits::total       459144                       # number of WriteReq MSHR hits (Count)
system.cpu.dcache.WriteReq.mshrMisses::cpu.data      5750234                       # number of WriteReq MSHR misses (Count)
system.cpu.dcache.WriteReq.mshrMisses::total      5750234                       # number of WriteReq MSHR misses (Count)
system.cpu.dcache.WriteReq.mshrMissLatency::cpu.data  81647281000                       # number of WriteReq MSHR miss ticks (Tick)
system.cpu.dcache.WriteReq.mshrMissLatency::total  81647281000                       # number of WriteReq MSHR miss ticks (Tick)
system.cpu.dcache.WriteReq.mshrMissRate::cpu.data     0.061821                       # mshr miss rate for WriteReq accesses (Ratio)
system.cpu.dcache.WriteReq.mshrMissRate::total     0.061821                       # mshr miss rate for WriteReq accesses (Ratio)
system.cpu.dcache.WriteReq.avgMshrMissLatency::cpu.data 14198.949295                       # average WriteReq mshr miss latency ((Tick/Count))
system.cpu.dcache.WriteReq.avgMshrMissLatency::total 14198.949295                       # average WriteReq mshr miss latency ((Tick/Count))
system.cpu.dcache.power_state.pwrStateResidencyTicks::UNDEFINED 1678256512000                       # Cumulative time (in ticks) in various power states (Tick)
system.cpu.dcache.tags.tagsInUse          1023.985993                       # Average ticks per tags in use ((Tick/Count))
system.cpu.dcache.tags.totalRefs            344568583                       # Total number of references to valid blocks. (Count)
system.cpu.dcache.tags.sampledRefs           13750541                       # Sample count of references to valid blocks. (Count)
system.cpu.dcache.tags.avgRefs              25.058547                       # Average number of references to valid blocks. ((Count/Count))
system.cpu.dcache.tags.warmupTick              918000                       # The tick when the warmup percentage was hit. (Tick)
system.cpu.dcache.tags.occupancies::cpu.data  1023.985993                       # Average occupied blocks per tick, per requestor ((Count/Tick))
system.cpu.dcache.tags.avgOccs::cpu.data     0.999986                       # Average percentage of cache occupancy ((Ratio/Tick))
system.cpu.dcache.tags.avgOccs::total        0.999986                       # Average percentage of cache occupancy ((Ratio/Tick))
system.cpu.dcache.tags.occupanciesTaskId::1024         1024                       # Occupied blocks per task id (Count)
system.cpu.dcache.tags.ageTaskId_1024::0           23                       # Occupied blocks per task id, per block age (Count)
system.cpu.dcache.tags.ageTaskId_1024::1          271                       # Occupied blocks per task id, per block age (Count)
system.cpu.dcache.tags.ageTaskId_1024::2          728                       # Occupied blocks per task id, per block age (Count)
system.cpu.dcache.tags.ageTaskId_1024::4            2                       # Occupied blocks per task id, per block age (Count)
system.cpu.dcache.tags.ratioOccsTaskId::1024            1                       # Ratio of occupied blocks and all blocks, per task id (Ratio)
system.cpu.dcache.tags.tagAccesses        11054637837                       # Number of tag accesses (Count)
system.cpu.dcache.tags.dataAccesses       11054637837                       # Number of data accesses (Count)
system.cpu.dcache.tags.power_state.pwrStateResidencyTicks::UNDEFINED 1678256512000                       # Cumulative time (in ticks) in various power states (Tick)
system.cpu.executeStats0.numInsts                   0                       # Number of executed instructions (Count)
system.cpu.executeStats0.numNop                     0                       # Number of nop insts executed (Count)
system.cpu.executeStats0.numBranches                0                       # Number of branches executed (Count)
system.cpu.executeStats0.numLoadInsts               0                       # Number of load instructions executed (Count)
system.cpu.executeStats0.numStoreInsts              0                       # Number of stores executed (Count)
system.cpu.executeStats0.instRate                   0                       # Inst execution rate ((Count/Cycle))
system.cpu.executeStats0.numFpRegWrites             0                       # Number of times the floating registers were written (Count)
system.cpu.executeStats0.numMemRefs                 0                       # Number of memory refs (Count)
system.cpu.executeStats0.numVecAluAccesses            0                       # Number of vector alu accesses (Count)
system.cpu.executeStats0.numDiscardedOps         8200                       # Number of ops (including micro ops) which were discarded before commit (Count)
system.cpu.fetch2.intInstructions           624094928                       # Number of integer instructions successfully decoded (Count)
system.cpu.fetch2.fpInstructions             56003362                       # Number of floating point instructions successfully decoded (Count)
system.cpu.fetch2.vecInstructions                   0                       # Number of SIMD instructions successfully decoded (Count)
system.cpu.fetch2.loadInstructions          295024947                       # Number of memory load instructions successfully decoded (Count)
system.cpu.fetch2.storeInstructions          93016207                       # Number of memory store instructions successfully decoded (Count)
system.cpu.fetch2.amoInstructions                   0                       # Number of memory atomic instructions successfully decoded (Count)
system.cpu.fetchStats0.numInsts                     0                       # Number of instructions fetched (thread level) (Count)
system.cpu.fetchStats0.numOps                       0                       # Number of ops (including micro ops) fetched (thread level) (Count)
system.cpu.fetchStats0.fetchRate                    0                       # Number of inst fetches per cycle ((Count/Cycle))
system.cpu.fetchStats0.branchRate                   0                       # Number of branch fetches per cycle (Ratio)
system.cpu.fetchStats0.numFetchSuspends             0                       # Number of times Execute suspended instruction fetching (Count)
system.cpu.icache.demandHits::cpu.inst      203028377                       # number of demand (read+write) hits (Count)
system.cpu.icache.demandHits::total         203028377                       # number of demand (read+write) hits (Count)
system.cpu.icache.overallHits::cpu.inst     203028377                       # number of overall hits (Count)
system.cpu.icache.overallHits::total        203028377                       # number of overall hits (Count)
system.cpu.icache.demandMisses::cpu.inst          434                       # number of demand (read+write) misses (Count)
system.cpu.icache.demandMisses::total             434                       # number of demand (read+write) misses (Count)
system.cpu.icache.overallMisses::cpu.inst          434                       # number of overall misses (Count)
system.cpu.icache.overallMisses::total            434                       # number of overall misses (Count)
system.cpu.icache.demandMissLatency::cpu.inst     56170000                       # number of demand (read+write) miss ticks (Tick)
system.cpu.icache.demandMissLatency::total     56170000                       # number of demand (read+write) miss ticks (Tick)
system.cpu.icache.overallMissLatency::cpu.inst     56170000                       # number of overall miss ticks (Tick)
system.cpu.icache.overallMissLatency::total     56170000                       # number of overall miss ticks (Tick)
system.cpu.icache.demandAccesses::cpu.inst    203028811                       # number of demand (read+write) accesses (Count)
system.cpu.icache.demandAccesses::total     203028811                       # number of demand (read+write) accesses (Count)
system.cpu.icache.overallAccesses::cpu.inst    203028811                       # number of overall (read+write) accesses (Count)
system.cpu.icache.overallAccesses::total    203028811                       # number of overall (read+write) accesses (Count)
system.cpu.icache.demandMissRate::cpu.inst     0.000002                       # miss rate for demand accesses (Ratio)
system.cpu.icache.demandMissRate::total      0.000002                       # miss rate for demand accesses (Ratio)
system.cpu.icache.overallMissRate::cpu.inst     0.000002                       # miss rate for overall accesses (Ratio)
system.cpu.icache.overallMissRate::total     0.000002                       # miss rate for overall accesses (Ratio)
system.cpu.icache.demandAvgMissLatency::cpu.inst 129423.963134                       # average overall miss latency in ticks ((Tick/Count))
system.cpu.icache.demandAvgMissLatency::total 129423.963134                       # average overall miss latency in ticks ((Tick/Count))
system.cpu.icache.overallAvgMissLatency::cpu.inst 129423.963134                       # average overall miss latency ((Tick/Count))
system.cpu.icache.overallAvgMissLatency::total 129423.963134                       # average overall miss latency ((Tick/Count))
system.cpu.icache.blockedCycles::no_mshrs            0                       # number of cycles access was blocked (Cycle)
system.cpu.icache.blockedCycles::no_targets            0                       # number of cycles access was blocked (Cycle)
system.cpu.icache.blockedCauses::no_mshrs            0                       # number of times access was blocked (Count)
system.cpu.icache.blockedCauses::no_targets            0                       # number of times access was blocked (Count)
system.cpu.icache.avgBlocked::no_mshrs            nan                       # average number of cycles each access was blocked ((Cycle/Count))
system.cpu.icache.avgBlocked::no_targets          nan                       # average number of cycles each access was blocked ((Cycle/Count))
system.cpu.icache.demandMshrMisses::cpu.inst          434                       # number of demand (read+write) MSHR misses (Count)
system.cpu.icache.demandMshrMisses::total          434                       # number of demand (read+write) MSHR misses (Count)
system.cpu.icache.overallMshrMisses::cpu.inst          434                       # number of overall MSHR misses (Count)
system.cpu.icache.overallMshrMisses::total          434                       # number of overall MSHR misses (Count)
system.cpu.icache.demandMshrMissLatency::cpu.inst     55736000                       # number of demand (read+write) MSHR miss ticks (Tick)
system.cpu.icache.demandMshrMissLatency::total     55736000                       # number of demand (read+write) MSHR miss ticks (Tick)
system.cpu.icache.overallMshrMissLatency::cpu.inst     55736000                       # number of overall MSHR miss ticks (Tick)
system.cpu.icache.overallMshrMissLatency::total     55736000                       # number of overall MSHR miss ticks (Tick)
system.cpu.icache.demandMshrMissRate::cpu.inst     0.000002                       # mshr miss ratio for demand accesses (Ratio)
system.cpu.icache.demandMshrMissRate::total     0.000002                       # mshr miss ratio for demand accesses (Ratio)
system.cpu.icache.overallMshrMissRate::cpu.inst     0.000002                       # mshr miss ratio for overall accesses (Ratio)
system.cpu.icache.overallMshrMissRate::total     0.000002                       # mshr miss ratio for overall accesses (Ratio)
system.cpu.icache.demandAvgMshrMissLatency::cpu.inst 128423.963134                       # average overall mshr miss latency ((Tick/Count))
system.cpu.icache.demandAvgMshrMissLatency::total 128423.963134                       # average overall mshr miss latency ((Tick/Count))
system.cpu.icache.overallAvgMshrMissLatency::cpu.inst 128423.963134                       # average overall mshr miss latency ((Tick/Count))
system.cpu.icache.overallAvgMshrMissLatency::total 128423.963134                       # average overall mshr miss latency ((Tick/Count))
system.cpu.icache.replacements                     12                       # number of replacements (Count)
system.cpu.icache.ReadReq.hits::cpu.inst    203028377                       # number of ReadReq hits (Count)
system.cpu.icache.ReadReq.hits::total       203028377                       # number of ReadReq hits (Count)
system.cpu.icache.ReadReq.misses::cpu.inst          434                       # number of ReadReq misses (Count)
system.cpu.icache.ReadReq.misses::total           434                       # number of ReadReq misses (Count)
system.cpu.icache.ReadReq.missLatency::cpu.inst     56170000                       # number of ReadReq miss ticks (Tick)
system.cpu.icache.ReadReq.missLatency::total     56170000                       # number of ReadReq miss ticks (Tick)
system.cpu.icache.ReadReq.accesses::cpu.inst    203028811                       # number of ReadReq accesses(hits+misses) (Count)
system.cpu.icache.ReadReq.accesses::total    203028811                       # number of ReadReq accesses(hits+misses) (Count)
system.cpu.icache.ReadReq.missRate::cpu.inst     0.000002                       # miss rate for ReadReq accesses (Ratio)
system.cpu.icache.ReadReq.missRate::total     0.000002                       # miss rate for ReadReq accesses (Ratio)
system.cpu.icache.ReadReq.avgMissLatency::cpu.inst 129423.963134                       # average ReadReq miss latency ((Tick/Count))
system.cpu.icache.ReadReq.avgMissLatency::total 129423.963134                       # average ReadReq miss latency ((Tick/Count))
system.cpu.icache.ReadReq.mshrMisses::cpu.inst          434                       # number of ReadReq MSHR misses (Count)
system.cpu.icache.ReadReq.mshrMisses::total          434                       # number of ReadReq MSHR misses (Count)
system.cpu.icache.ReadReq.mshrMissLatency::cpu.inst     55736000                       # number of ReadReq MSHR miss ticks (Tick)
system.cpu.icache.ReadReq.mshrMissLatency::total     55736000                       # number of ReadReq MSHR miss ticks (Tick)
system.cpu.icache.ReadReq.mshrMissRate::cpu.inst     0.000002                       # mshr miss rate for ReadReq accesses (Ratio)
system.cpu.icache.ReadReq.mshrMissRate::total     0.000002                       # mshr miss rate for ReadReq accesses (Ratio)
system.cpu.icache.ReadReq.avgMshrMissLatency::cpu.inst 128423.963134                       # average ReadReq mshr miss latency ((Tick/Count))
system.cpu.icache.ReadReq.avgMshrMissLatency::total 128423.963134                       # average ReadReq mshr miss latency ((Tick/Count))
system.cpu.icache.power_state.pwrStateResidencyTicks::UNDEFINED 1678256512000                       # Cumulative time (in ticks) in various power states (Tick)
system.cpu.icache.tags.tagsInUse           363.193447                       # Average ticks per tags in use ((Tick/Count))
system.cpu.icache.tags.totalRefs            203028811                       # Total number of references to valid blocks. (Count)
system.cpu.icache.tags.sampledRefs                434                       # Sample count of references to valid blocks. (Count)
system.cpu.icache.tags.avgRefs           467808.320276                       # Average number of references to valid blocks. ((Count/Count))
system.cpu.icache.tags.warmupTick              138000                       # The tick when the warmup percentage was hit. (Tick)
system.cpu.icache.tags.occupancies::cpu.inst   363.193447                       # Average occupied blocks per tick, per requestor ((Count/Tick))
system.cpu.icache.tags.avgOccs::cpu.inst     0.709362                       # Average percentage of cache occupancy ((Ratio/Tick))
system.cpu.icache.tags.avgOccs::total        0.709362                       # Average percentage of cache occupancy ((Ratio/Tick))
system.cpu.icache.tags.occupanciesTaskId::1024          422                       # Occupied blocks per task id (Count)
system.cpu.icache.tags.ageTaskId_1024::0           23                       # Occupied blocks per task id, per block age (Count)
system.cpu.icache.tags.ageTaskId_1024::1           20                       # Occupied blocks per task id, per block age (Count)
system.cpu.icache.tags.ageTaskId_1024::4          379                       # Occupied blocks per task id, per block age (Count)
system.cpu.icache.tags.ratioOccsTaskId::1024     0.824219                       # Ratio of occupied blocks and all blocks, per task id (Ratio)
system.cpu.icache.tags.tagAccesses         1624230922                       # Number of tag accesses (Count)
system.cpu.icache.tags.dataAccesses        1624230922                       # Number of data accesses (Count)
system.cpu.icache.tags.power_state.pwrStateResidencyTicks::UNDEFINED 1678256512000                       # Cumulative time (in ticks) in various power states (Tick)
system.cpu.mmu.dtb.readHits                         0                       # read hits (Count)
system.cpu.mmu.dtb.readMisses                       0                       # read misses (Count)
system.cpu.mmu.dtb.readAccesses                     0                       # read accesses (Count)
system.cpu.mmu.dtb.writeHits                        0                       # write hits (Count)
system.cpu.mmu.dtb.writeMisses                      0                       # write misses (Count)
system.cpu.mmu.dtb.writeAccesses                    0                       # write accesses (Count)
system.cpu.mmu.dtb.hits                             0                       # Total TLB (read and write) hits (Count)
system.cpu.mmu.dtb.misses                           0                       # Total TLB (read and write) misses (Count)
system.cpu.mmu.dtb.accesses                         0                       # Total TLB (read and write) accesses (Count)
system.cpu.mmu.dtb.walker.num_4kb_walks             0                       # Completed page walks with 4KB pages (Count)
system.cpu.mmu.dtb.walker.num_64kb_walks            0                       # Completed page walks with 64KB pages (Count)
system.cpu.mmu.dtb.walker.num_2mb_walks             0                       # Completed page walks with 2MB pages (Count)
system.cpu.mmu.dtb.walker.power_state.pwrStateResidencyTicks::UNDEFINED 1678256512000                       # Cumulative time (in ticks) in various power states (Tick)
system.cpu.mmu.itb.readHits                         0                       # read hits (Count)
system.cpu.mmu.itb.readMisses                       0                       # read misses (Count)
system.cpu.mmu.itb.readAccesses                     0                       # read accesses (Count)
system.cpu.mmu.itb.writeHits                        0                       # write hits (Count)
system.cpu.mmu.itb.writeMisses                      0                       # write misses (Count)
system.cpu.mmu.itb.writeAccesses                    0                       # write accesses (Count)
system.cpu.mmu.itb.hits                             0                       # Total TLB (read and write) hits (Count)
system.cpu.mmu.itb.misses                           0                       # Total TLB (read and write) misses (Count)
system.cpu.mmu.itb.accesses                         0                       # Total TLB (read and write) accesses (Count)
system.cpu.mmu.itb.walker.num_4kb_walks             0                       # Completed page walks with 4KB pages (Count)
system.cpu.mmu.itb.walker.num_64kb_walks            0                       # Completed page walks with 64KB pages (Count)
system.cpu.mmu.itb.walker.num_2mb_walks             0                       # Completed page walks with 2MB pages (Count)
system.cpu.mmu.itb.walker.power_state.pwrStateResidencyTicks::UNDEFINED 1678256512000                       # Cumulative time (in ticks) in various power states (Tick)
system.cpu.power_state.pwrStateResidencyTicks::ON 1678256512000                       # Cumulative time (in ticks) in various power states (Tick)
system.cpu.thread_0.numInsts               1071113122                       # Number of Instructions committed (Count)
system.cpu.thread_0.numOps                 1071113122                       # Number of Ops committed (Count)
system.cpu.thread_0.numMemRefs                      0                       # Number of Memory References (Count)
system.cpu.workload.numSyscalls                   381                       # Number of system calls (Count)
system.l2bus.transDist::ReadResp              8000741                       # Transaction distribution (Count)
system.l2bus.transDist::WritebackDirty       17625981                       # Transaction distribution (Count)
system.l2bus.transDist::CleanEvict           24226022                       # Transaction distribution (Count)
system.l2bus.transDist::HardPFReq            14809035                       # Transaction distribution (Count)
system.l2bus.transDist::ReadExReq             5750234                       # Transaction distribution (Count)
system.l2bus.transDist::ReadExResp            5750234                       # Transaction distribution (Count)
system.l2bus.transDist::ReadCleanReq              434                       # Transaction distribution (Count)
system.l2bus.transDist::ReadSharedReq         8000307                       # Transaction distribution (Count)
system.l2bus.pktCount_system.cpu.icache.mem_side_port::system.l2cache.cpu_side_port          880                       # Packet count per connected requestor and responder (Count)
system.l2bus.pktCount_system.cpu.dcache.mem_side_port::system.l2cache.cpu_side_port     41250599                       # Packet count per connected requestor and responder (Count)
system.l2bus.pktCount::total                 41251479                       # Packet count per connected requestor and responder (Count)
system.l2bus.pktSize_system.cpu.icache.mem_side_port::system.l2cache.cpu_side_port        27776                       # Cumulative packet size per connected requestor and responder (Byte)
system.l2bus.pktSize_system.cpu.dcache.mem_side_port::system.l2cache.cpu_side_port   1256055552                       # Cumulative packet size per connected requestor and responder (Byte)
system.l2bus.pktSize::total                1256083328                       # Cumulative packet size per connected requestor and responder (Byte)
system.l2bus.snoops                          42911509                       # Total snoops (Count)
system.l2bus.snoopTraffic                   752041856                       # Total snoop traffic (Byte)
system.l2bus.snoopFanout::samples            56662484                       # Request fanout histogram (Count)
system.l2bus.snoopFanout::mean               0.003748                       # Request fanout histogram (Count)
system.l2bus.snoopFanout::stdev              0.061110                       # Request fanout histogram (Count)
system.l2bus.snoopFanout::underflows                0      0.00%      0.00% # Request fanout histogram (Count)
system.l2bus.snoopFanout::0                  56450098     99.63%     99.63% # Request fanout histogram (Count)
system.l2bus.snoopFanout::1                    212382      0.37%    100.00% # Request fanout histogram (Count)
system.l2bus.snoopFanout::2                         4      0.00%    100.00% # Request fanout histogram (Count)
system.l2bus.snoopFanout::overflows                 0      0.00%    100.00% # Request fanout histogram (Count)
system.l2bus.snoopFanout::min_value                 0                       # Request fanout histogram (Count)
system.l2bus.snoopFanout::max_value                 2                       # Request fanout histogram (Count)
system.l2bus.snoopFanout::total              56662484                       # Request fanout histogram (Count)
system.l2bus.power_state.pwrStateResidencyTicks::UNDEFINED 1678256512000                       # Cumulative time (in ticks) in various power states (Tick)
system.l2bus.reqLayer0.occupancy          39251158000                       # Layer occupancy (ticks) (Tick)
system.l2bus.reqLayer0.utilization                0.0                       # Layer utilization (Ratio)
system.l2bus.respLayer0.occupancy             1302000                       # Layer occupancy (ticks) (Tick)
system.l2bus.respLayer0.utilization               0.0                       # Layer utilization (Ratio)
system.l2bus.respLayer1.occupancy         41251623000                       # Layer occupancy (ticks) (Tick)
system.l2bus.respLayer1.utilization               0.0                       # Layer utilization (Ratio)
system.l2bus.snoop_filter.totRequests        27500504                       # Total number of requests made to the snoop filter. (Count)
system.l2bus.snoop_filter.hitSingleRequests     13749530                       # Number of requests hitting in the snoop filter with a single holder of the requested data. (Count)
system.l2bus.snoop_filter.hitMultiRequests            5                       # Number of requests hitting in the snoop filter with multiple (>1) holders of the requested data. (Count)
system.l2bus.snoop_filter.totSnoops            212380                       # Total number of snoops made to the snoop filter. (Count)
system.l2bus.snoop_filter.hitSingleSnoops       212376                       # Number of snoops hitting in the snoop filter with a single holder of the requested data. (Count)
system.l2bus.snoop_filter.hitMultiSnoops            4                       # Number of snoops hitting in the snoop filter with multiple (>1) holders of the requested data. (Count)
system.l2cache.demandHits::cpu.inst                 1                       # number of demand (read+write) hits (Count)
system.l2cache.demandHits::cpu.data          13535168                       # number of demand (read+write) hits (Count)
system.l2cache.demandHits::total             13535169                       # number of demand (read+write) hits (Count)
system.l2cache.overallHits::cpu.inst                1                       # number of overall hits (Count)
system.l2cache.overallHits::cpu.data         13535168                       # number of overall hits (Count)
system.l2cache.overallHits::total            13535169                       # number of overall hits (Count)
system.l2cache.demandMisses::cpu.inst             433                       # number of demand (read+write) misses (Count)
system.l2cache.demandMisses::cpu.data          215373                       # number of demand (read+write) misses (Count)
system.l2cache.demandMisses::total             215806                       # number of demand (read+write) misses (Count)
system.l2cache.overallMisses::cpu.inst            433                       # number of overall misses (Count)
system.l2cache.overallMisses::cpu.data         215373                       # number of overall misses (Count)
system.l2cache.overallMisses::total            215806                       # number of overall misses (Count)
system.l2cache.demandMissLatency::cpu.inst     53552000                       # number of demand (read+write) miss ticks (Tick)
system.l2cache.demandMissLatency::cpu.data  43925959000                       # number of demand (read+write) miss ticks (Tick)
system.l2cache.demandMissLatency::total   43979511000                       # number of demand (read+write) miss ticks (Tick)
system.l2cache.overallMissLatency::cpu.inst     53552000                       # number of overall miss ticks (Tick)
system.l2cache.overallMissLatency::cpu.data  43925959000                       # number of overall miss ticks (Tick)
system.l2cache.overallMissLatency::total  43979511000                       # number of overall miss ticks (Tick)
system.l2cache.demandAccesses::cpu.inst           434                       # number of demand (read+write) accesses (Count)
system.l2cache.demandAccesses::cpu.data      13750541                       # number of demand (read+write) accesses (Count)
system.l2cache.demandAccesses::total         13750975                       # number of demand (read+write) accesses (Count)
system.l2cache.overallAccesses::cpu.inst          434                       # number of overall (read+write) accesses (Count)
system.l2cache.overallAccesses::cpu.data     13750541                       # number of overall (read+write) accesses (Count)
system.l2cache.overallAccesses::total        13750975                       # number of overall (read+write) accesses (Count)
system.l2cache.demandMissRate::cpu.inst      0.997696                       # miss rate for demand accesses (Ratio)
system.l2cache.demandMissRate::cpu.data      0.015663                       # miss rate for demand accesses (Ratio)
system.l2cache.demandMissRate::total         0.015694                       # miss rate for demand accesses (Ratio)
system.l2cache.overallMissRate::cpu.inst     0.997696                       # miss rate for overall accesses (Ratio)
system.l2cache.overallMissRate::cpu.data     0.015663                       # miss rate for overall accesses (Ratio)
system.l2cache.overallMissRate::total        0.015694                       # miss rate for overall accesses (Ratio)
system.l2cache.demandAvgMissLatency::cpu.inst 123676.674365                       # average overall miss latency in ticks ((Tick/Count))
system.l2cache.demandAvgMissLatency::cpu.data 203952.951391                       # average overall miss latency in ticks ((Tick/Count))
system.l2cache.demandAvgMissLatency::total 203791.882524                       # average overall miss latency in ticks ((Tick/Count))
system.l2cache.overallAvgMissLatency::cpu.inst 123676.674365                       # average overall miss latency ((Tick/Count))
system.l2cache.overallAvgMissLatency::cpu.data 203952.951391                       # average overall miss latency ((Tick/Count))
system.l2cache.overallAvgMissLatency::total 203791.882524                       # average overall miss latency ((Tick/Count))
system.l2cache.blockedCycles::no_mshrs              0                       # number of cycles access was blocked (Cycle)
system.l2cache.blockedCycles::no_targets            0                       # number of cycles access was blocked (Cycle)
system.l2cache.blockedCauses::no_mshrs              0                       # number of times access was blocked (Count)
system.l2cache.blockedCauses::no_targets            0                       # number of times access was blocked (Count)
system.l2cache.avgBlocked::no_mshrs               nan                       # average number of cycles each access was blocked ((Cycle/Count))
system.l2cache.avgBlocked::no_targets             nan                       # average number of cycles each access was blocked ((Cycle/Count))
system.l2cache.writebacks::writebacks         5875327                       # number of writebacks (Count)
system.l2cache.writebacks::total              5875327                       # number of writebacks (Count)
system.l2cache.demandMshrMisses::cpu.inst          433                       # number of demand (read+write) MSHR misses (Count)
system.l2cache.demandMshrMisses::cpu.data       215373                       # number of demand (read+write) MSHR misses (Count)
system.l2cache.demandMshrMisses::total         215806                       # number of demand (read+write) MSHR misses (Count)
[...]
system.mem_ctrl.dram.bwTotal::l2cache.prefetcher    516196580                       # Total bandwidth to/from this memory ((Byte/Second))
system.mem_ctrl.dram.bwTotal::total         748480728                       # Total bandwidth to/from this memory ((Byte/Second))
system.mem_ctrl.dram.readBursts              13751871                       # Number of DRAM read bursts (Count)
system.mem_ctrl.dram.writeBursts              5875296                       # Number of DRAM write bursts (Count)
system.mem_ctrl.dram.perBankRdBursts::0        858997                       # Per bank write bursts (Count)
system.mem_ctrl.dram.perBankRdBursts::1        858972                       # Per bank write bursts (Count)
system.mem_ctrl.dram.perBankRdBursts::2        858993                       # Per bank write bursts (Count)
system.mem_ctrl.dram.perBankRdBursts::3        858951                       # Per bank write bursts (Count)
system.mem_ctrl.dram.perBankRdBursts::4        858895                       # Per bank write bursts (Count)
system.mem_ctrl.dram.perBankRdBursts::5        859001                       # Per bank write bursts (Count)
system.mem_ctrl.dram.perBankRdBursts::6        861270                       # Per bank write bursts (Count)
system.mem_ctrl.dram.perBankRdBursts::7        863864                       # Per bank write bursts (Count)
system.mem_ctrl.dram.perBankRdBursts::8        860719                       # Per bank write bursts (Count)
system.mem_ctrl.dram.perBankRdBursts::9        858934                       # Per bank write bursts (Count)
system.mem_ctrl.dram.perBankRdBursts::10       858880                       # Per bank write bursts (Count)
system.mem_ctrl.dram.perBankRdBursts::11       858880                       # Per bank write bursts (Count)
system.mem_ctrl.dram.perBankRdBursts::12       858880                       # Per bank write bursts (Count)
system.mem_ctrl.dram.perBankRdBursts::13       858879                       # Per bank write bursts (Count)
system.mem_ctrl.dram.perBankRdBursts::14       858878                       # Per bank write bursts (Count)
system.mem_ctrl.dram.perBankRdBursts::15       858878                       # Per bank write bursts (Count)
system.mem_ctrl.dram.perBankWrBursts::0        366974                       # Per bank write bursts (Count)
system.mem_ctrl.dram.perBankWrBursts::1        366974                       # Per bank write bursts (Count)
system.mem_ctrl.dram.perBankWrBursts::2        366972                       # Per bank write bursts (Count)
system.mem_ctrl.dram.perBankWrBursts::3        366972                       # Per bank write bursts (Count)
system.mem_ctrl.dram.perBankWrBursts::4        366972                       # Per bank write bursts (Count)
system.mem_ctrl.dram.perBankWrBursts::5        366973                       # Per bank write bursts (Count)
system.mem_ctrl.dram.perBankWrBursts::6        367906                       # Per bank write bursts (Count)
system.mem_ctrl.dram.perBankWrBursts::7        369047                       # Per bank write bursts (Count)
system.mem_ctrl.dram.perBankWrBursts::8        367651                       # Per bank write bursts (Count)
system.mem_ctrl.dram.perBankWrBursts::9        367004                       # Per bank write bursts (Count)
system.mem_ctrl.dram.perBankWrBursts::10       366976                       # Per bank write bursts (Count)
system.mem_ctrl.dram.perBankWrBursts::11       366976                       # Per bank write bursts (Count)
system.mem_ctrl.dram.perBankWrBursts::12       366976                       # Per bank write bursts (Count)
system.mem_ctrl.dram.perBankWrBursts::13       366975                       # Per bank write bursts (Count)
system.mem_ctrl.dram.perBankWrBursts::14       366974                       # Per bank write bursts (Count)
system.mem_ctrl.dram.perBankWrBursts::15       366974                       # Per bank write bursts (Count)
system.mem_ctrl.dram.totQLat             483700064646                       # Total ticks spent queuing (Tick)
system.mem_ctrl.dram.totBusLat            68759355000                       # Total ticks spent in databus transfers (Tick)
system.mem_ctrl.dram.totMemAccLat        741547645896                       # Total ticks spent from burst creation until serviced by the DRAM (Tick)
system.mem_ctrl.dram.avgQLat                 35173.40                       # Average queueing delay per DRAM burst ((Tick/Count))
system.mem_ctrl.dram.avgBusLat                5000.00                       # Average bus latency per DRAM burst ((Tick/Count))
system.mem_ctrl.dram.avgMemAccLat            53923.40                       # Average memory access latency per DRAM burst ((Tick/Count))
system.mem_ctrl.dram.readRowHits              8613753                       # Number of row buffer hits during reads (Count)
system.mem_ctrl.dram.writeRowHits             5272107                       # Number of row buffer hits during writes (Count)
system.mem_ctrl.dram.readRowHitRate             62.64                       # Row buffer hit rate for reads (Ratio)
system.mem_ctrl.dram.writeRowHitRate            89.73                       # Row buffer hit rate for writes (Ratio)
system.mem_ctrl.dram.bytesPerActivate::samples      5741307                       # Bytes accessed per row activation (Byte)
system.mem_ctrl.dram.bytesPerActivate::mean   218.789674                       # Bytes accessed per row activation (Byte)
system.mem_ctrl.dram.bytesPerActivate::gmean   109.310450                       # Bytes accessed per row activation (Byte)
system.mem_ctrl.dram.bytesPerActivate::stdev   320.844646                       # Bytes accessed per row activation (Byte)
system.mem_ctrl.dram.bytesPerActivate::0-127      4325382     75.34%     75.34% # Bytes accessed per row activation (Byte)
system.mem_ctrl.dram.bytesPerActivate::128-255       243642      4.24%     79.58% # Bytes accessed per row activation (Byte)
system.mem_ctrl.dram.bytesPerActivate::256-383        84040      1.46%     81.05% # Bytes accessed per row activation (Byte)
system.mem_ctrl.dram.bytesPerActivate::384-511       111471      1.94%     82.99% # Bytes accessed per row activation (Byte)
system.mem_ctrl.dram.bytesPerActivate::512-639       138672      2.42%     85.40% # Bytes accessed per row activation (Byte)
system.mem_ctrl.dram.bytesPerActivate::640-767        91741      1.60%     87.00% # Bytes accessed per row activation (Byte)
system.mem_ctrl.dram.bytesPerActivate::768-895        91577      1.60%     88.60% # Bytes accessed per row activation (Byte)
system.mem_ctrl.dram.bytesPerActivate::896-1023        47104      0.82%     89.42% # Bytes accessed per row activation (Byte)
system.mem_ctrl.dram.bytesPerActivate::1024-1151       607678     10.58%    100.00% # Bytes accessed per row activation (Byte)
system.mem_ctrl.dram.bytesPerActivate::total      5741307                       # Bytes accessed per row activation (Byte)
system.mem_ctrl.dram.dramBytesRead          880119744                       # Total bytes read (Byte)
system.mem_ctrl.dram.dramBytesWritten       376018944                       # Total bytes written (Byte)
system.mem_ctrl.dram.avgRdBW               524.425043                       # Average DRAM read bandwidth in MiBytes/s ((Byte/Second))
system.mem_ctrl.dram.avgWrBW               224.053320                       # Average DRAM write bandwidth in MiBytes/s ((Byte/Second))
system.mem_ctrl.dram.peakBW                  12800.00                       # Theoretical peak bandwidth in MiByte/s ((Byte/Second))
system.mem_ctrl.dram.busUtil                     5.85                       # Data bus utilization in percentage (Ratio)
system.mem_ctrl.dram.busUtilRead                 4.10                       # Data bus utilization in percentage for reads (Ratio)
system.mem_ctrl.dram.busUtilWrite                1.75                       # Data bus utilization in percentage for writes (Ratio)
system.mem_ctrl.dram.pageHitRate                70.75                       # Row buffer hit rate, read and write combined (Ratio)
system.mem_ctrl.dram.power_state.pwrStateResidencyTicks::UNDEFINED 1678256512000                       # Cumulative time (in ticks) in various power states (Tick)
system.mem_ctrl.dram.rank0.actEnergy      20507058180                       # Energy for activate commands per rank (pJ) (Joule)
system.mem_ctrl.dram.rank0.preEnergy      10899759915                       # Energy for precharge commands per rank (pJ) (Joule)
system.mem_ctrl.dram.rank0.readEnergy     49115653020                       # Energy for read commands per rank (pJ) (Joule)
system.mem_ctrl.dram.rank0.writeEnergy    15340483800                       # Energy for write commands per rank (pJ) (Joule)
system.mem_ctrl.dram.rank0.refreshEnergy 132480120240.000015                       # Energy for refresh commands per rank (pJ) (Joule)
system.mem_ctrl.dram.rank0.actBackEnergy 426317680920                       # Energy for active background per rank (pJ) (Joule)
system.mem_ctrl.dram.rank0.preBackEnergy 285446137920                       # Energy for precharge background per rank (pJ) (Joule)
system.mem_ctrl.dram.rank0.actPowerDownEnergy            0                       # Energy for active power-down per rank (pJ) (Joule)
system.mem_ctrl.dram.rank0.prePowerDownEnergy            0                       # Energy for precharge power-down per rank (pJ) (Joule)
system.mem_ctrl.dram.rank0.selfRefreshEnergy            0                       # Energy for self refresh per rank (pJ) (Joule)
system.mem_ctrl.dram.rank0.totalEnergy   940106893995                       # Total energy per rank (pJ) (Joule)
system.mem_ctrl.dram.rank0.averagePower    560.168775                       # Core power per rank (mW) (Watt)
system.mem_ctrl.dram.rank0.totalIdleTime            0                       # Total Idle time Per DRAM Rank (Tick)
system.mem_ctrl.dram.rank0.pwrStateTime::IDLE 728668460848                       # Time in different power states (Tick)
system.mem_ctrl.dram.rank0.pwrStateTime::REF  56040660000                       # Time in different power states (Tick)
system.mem_ctrl.dram.rank0.pwrStateTime::SREF            0                       # Time in different power states (Tick)
system.mem_ctrl.dram.rank0.pwrStateTime::PRE_PDN            0                       # Time in different power states (Tick)
system.mem_ctrl.dram.rank0.pwrStateTime::ACT 893547391152                       # Time in different power states (Tick)
system.mem_ctrl.dram.rank0.pwrStateTime::ACT_PDN            0                       # Time in different power states (Tick)
system.mem_ctrl.dram.rank1.actEnergy      20485873800                       # Energy for activate commands per rank (pJ) (Joule)
system.mem_ctrl.dram.rank1.preEnergy      10888500150                       # Energy for precharge commands per rank (pJ) (Joule)
system.mem_ctrl.dram.rank1.readEnergy     49072705920                       # Energy for read commands per rank (pJ) (Joule)
system.mem_ctrl.dram.rank1.writeEnergy    15328561320                       # Energy for write commands per rank (pJ) (Joule)
system.mem_ctrl.dram.rank1.refreshEnergy 132480120240.000015                       # Energy for refresh commands per rank (pJ) (Joule)
system.mem_ctrl.dram.rank1.actBackEnergy 425967815490                       # Energy for active background per rank (pJ) (Joule)
system.mem_ctrl.dram.rank1.preBackEnergy 285740761440                       # Energy for precharge background per rank (pJ) (Joule)
system.mem_ctrl.dram.rank1.actPowerDownEnergy            0                       # Energy for active power-down per rank (pJ) (Joule)
system.mem_ctrl.dram.rank1.prePowerDownEnergy            0                       # Energy for precharge power-down per rank (pJ) (Joule)
system.mem_ctrl.dram.rank1.selfRefreshEnergy            0                       # Energy for self refresh per rank (pJ) (Joule)
system.mem_ctrl.dram.rank1.totalEnergy   939964338360                       # Total energy per rank (pJ) (Joule)
system.mem_ctrl.dram.rank1.averagePower    560.083832                       # Core power per rank (mW) (Watt)
system.mem_ctrl.dram.rank1.totalIdleTime            0                       # Total Idle time Per DRAM Rank (Tick)
system.mem_ctrl.dram.rank1.pwrStateTime::IDLE 729444773801                       # Time in different power states (Tick)
system.mem_ctrl.dram.rank1.pwrStateTime::REF  56040660000                       # Time in different power states (Tick)
system.mem_ctrl.dram.rank1.pwrStateTime::SREF            0                       # Time in different power states (Tick)
system.mem_ctrl.dram.rank1.pwrStateTime::PRE_PDN            0                       # Time in different power states (Tick)
system.mem_ctrl.dram.rank1.pwrStateTime::ACT 892771078199                       # Time in different power states (Tick)
system.mem_ctrl.dram.rank1.pwrStateTime::ACT_PDN            0                       # Time in different power states (Tick)
system.mem_ctrl.power_state.pwrStateResidencyTicks::UNDEFINED 1678256512000                       # Cumulative time (in ticks) in various power states (Tick)
system.membus.transDist::ReadResp            13661839                       # Transaction distribution (Count)
system.membus.transDist::WritebackDirty       5875327                       # Transaction distribution (Count)
system.membus.transDist::CleanEvict           7867969                       # Transaction distribution (Count)
system.membus.transDist::ReadExReq              90063                       # Transaction distribution (Count)
system.membus.transDist::ReadExResp             90063                       # Transaction distribution (Count)
system.membus.transDist::ReadSharedReq       13661839                       # Transaction distribution (Count)
system.membus.pktCount_system.l3cache0.mem_side_port::system.mem_ctrl.port     10311771                       # Packet count per connected requestor and responder (Count)
system.membus.pktCount_system.l3cache1.mem_side_port::system.mem_ctrl.port     10311801                       # Packet count per connected requestor and responder (Count)
system.membus.pktCount_system.l3cache2.mem_side_port::system.mem_ctrl.port     10311786                       # Packet count per connected requestor and responder (Count)
system.membus.pktCount_system.l3cache3.mem_side_port::system.mem_ctrl.port     10311742                       # Packet count per connected requestor and responder (Count)
system.membus.pktCount::total                41247100                       # Packet count per connected requestor and responder (Count)
system.membus.pktSize_system.l3cache0.mem_side_port::system.mem_ctrl.port    314036480                       # Cumulative packet size per connected requestor and responder (Byte)
system.membus.pktSize_system.l3cache1.mem_side_port::system.mem_ctrl.port    314036864                       # Cumulative packet size per connected requestor and responder (Byte)
system.membus.pktSize_system.l3cache2.mem_side_port::system.mem_ctrl.port    314036992                       # Cumulative packet size per connected requestor and responder (Byte)
system.membus.pktSize_system.l3cache3.mem_side_port::system.mem_ctrl.port    314032320                       # Cumulative packet size per connected requestor and responder (Byte)
system.membus.pktSize::total               1256142656                       # Cumulative packet size per connected requestor and responder (Byte)
system.membus.snoops                                0                       # Total snoops (Count)
system.membus.snoopTraffic                          0                       # Total snoop traffic (Byte)
system.membus.snoopFanout::samples           13751902                       # Request fanout histogram (Count)
system.membus.snoopFanout::mean                     0                       # Request fanout histogram (Count)
system.membus.snoopFanout::stdev                    0                       # Request fanout histogram (Count)
system.membus.snoopFanout::underflows               0      0.00%      0.00% # Request fanout histogram (Count)
system.membus.snoopFanout::0                 13751902    100.00%    100.00% # Request fanout histogram (Count)
system.membus.snoopFanout::1                        0      0.00%    100.00% # Request fanout histogram (Count)
system.membus.snoopFanout::2                        0      0.00%    100.00% # Request fanout histogram (Count)
system.membus.snoopFanout::3                        0      0.00%    100.00% # Request fanout histogram (Count)
system.membus.snoopFanout::4                        0      0.00%    100.00% # Request fanout histogram (Count)
system.membus.snoopFanout::overflows                0      0.00%    100.00% # Request fanout histogram (Count)
system.membus.snoopFanout::min_value                0                       # Request fanout histogram (Count)
system.membus.snoopFanout::max_value                0                       # Request fanout histogram (Count)
system.membus.snoopFanout::total             13751902                       # Request fanout histogram (Count)
system.membus.power_state.pwrStateResidencyTicks::UNDEFINED 1678256512000                       # Cumulative time (in ticks) in various power states (Tick)
system.membus.reqLayer0.occupancy         51147431998                       # Layer occupancy (ticks) (Tick)
system.membus.reqLayer0.utilization               0.0                       # Layer utilization (Ratio)
system.membus.respLayer0.occupancy        18487094853                       # Layer occupancy (ticks) (Tick)
system.membus.respLayer0.utilization              0.0                       # Layer utilization (Ratio)
system.membus.respLayer1.occupancy        18328924586                       # Layer occupancy (ticks) (Tick)
system.membus.respLayer1.utilization              0.0                       # Layer utilization (Ratio)
system.membus.respLayer2.occupancy        18417106647                       # Layer occupancy (ticks) (Tick)
system.membus.respLayer2.utilization              0.0                       # Layer utilization (Ratio)
system.membus.respLayer3.occupancy        18424514299                       # Layer occupancy (ticks) (Tick)
system.membus.respLayer3.utilization              0.0                       # Layer utilization (Ratio)
system.membus.snoop_filter.totRequests       27495198                       # Total number of requests made to the snoop filter. (Count)
system.membus.snoop_filter.hitSingleRequests     13743301                       # Number of requests hitting in the snoop filter with a single holder of the requested data. (Count)
system.membus.snoop_filter.hitMultiRequests            0                       # Number of requests hitting in the snoop filter with multiple (>1) holders of the requested data. (Count)
system.membus.snoop_filter.totSnoops                0                       # Total number of snoops made to the snoop filter. (Count)
system.membus.snoop_filter.hitSingleSnoops            0                       # Number of snoops hitting in the snoop filter with a single holder of the requested data. (Count)
system.membus.snoop_filter.hitMultiSnoops            0                       # Number of snoops hitting in the snoop filter with multiple (>1) holders of the requested data. (Count)
system.workload.inst.arm                            0                       # number of arm instructions executed (Count)
system.workload.inst.quiesce                        0                       # number of quiesce instructions executed (Count)
system.cpu.idleCycles                       199181734                       # Total number of cycles that the object has spent stopped (Unspecified)
system.cpu.tickCycles                      1479074778                       # Number of cycles that the object actually ticked (Unspecified)

---------- End Simulation Statistics   ----------
