
---------- Begin Simulation Statistics ----------
simSeconds                                   3.219404                       # Number of seconds simulated (Second)
simTicks                                 3219403995000                       # Number of ticks simulated (Tick)
finalTick                                3219403995000                       # Number of ticks from beginning of simulation (restored from checkpoints and never reset) (Tick)
simFreq                                  1000000000000                       # The number of ticks per simulated second ((Tick/Second))
hostSeconds                                   5154.36                       # Real time elapsed on the host (Second)
hostTickRate                                624598459                       # The number of ticks simulated per host second (ticks/s) ((Tick/Second))
hostMemory                                  405620208                       # Number of bytes of host memory used (Byte)
simInsts                                   1272112945                       # Number of instructions simulated (Count)
simOps                                     1272112945                       # Number of ops (including micro ops) simulated (Count)
hostInstRate                                   246803                       # Simulator instruction rate (inst/s) ((Count/Second))
hostOpRate                                     246803                       # Simulator op (including micro ops) rate (op/s) ((Count/Second))
system.clk_domain.clock                          1000                       # Clock period in ticks (Tick)
system.clk_domain.voltage_domain.voltage            1                       # Voltage in Volts (Volt)
system.cpu.numCycles                       3219403995                       # Number of cpu cycles simulated (Cycle)
system.cpu.cpi                               2.530753                       # CPI: cycles per instruction (core level) ((Cycle/Count))
system.cpu.ipc                               0.395139                       # IPC: instructions per cycle (core level) ((Count/Cycle))
system.cpu.numWorkItemsStarted                      0                       # Number of work items this cpu started (Count)
system.cpu.numWorkItemsCompleted                    0                       # Number of work items this cpu completed (Count)
system.cpu.branchPred.lookups_0::NoBranch          385      0.00%      0.00% # Number of BP lookups (Count)
system.cpu.branchPred.lookups_0::Return          3394      0.00%      0.01% # Number of BP lookups (Count)
system.cpu.branchPred.lookups_0::CallDirect         3225      0.00%      0.01% # Number of BP lookups (Count)
system.cpu.branchPred.lookups_0::CallIndirect           68      0.00%      0.01% # Number of BP lookups (Count)
system.cpu.branchPred.lookups_0::DirectCond     70018779     95.88%     95.89% # Number of BP lookups (Count)
system.cpu.branchPred.lookups_0::DirectUncond      3002829      4.11%    100.00% # Number of BP lookups (Count)
system.cpu.branchPred.lookups_0::IndirectCond            0      0.00%    100.00% # Number of BP lookups (Count)
system.cpu.branchPred.lookups_0::IndirectUncond           77      0.00%    100.00% # Number of BP lookups (Count)
system.cpu.branchPred.lookups_0::total       73028757                       # Number of BP lookups (Count)
system.cpu.branchPred.squashes_0::NoBranch            3      0.05%      0.05% # Number of branches that got squashed (completely removed) as an earlier branch was mispredicted. (Count)
system.cpu.branchPred.squashes_0::Return          663     11.73%     11.79% # Number of branches that got squashed (completely removed) as an earlier branch was mispredicted. (Count)
system.cpu.branchPred.squashes_0::CallDirect          534      9.45%     21.24% # Number of branches that got squashed (completely removed) as an earlier branch was mispredicted. (Count)
system.cpu.branchPred.squashes_0::CallIndirect           26      0.46%     21.70% # Number of branches that got squashed (completely removed) as an earlier branch was mispredicted. (Count)
system.cpu.branchPred.squashes_0::DirectCond         3693     65.35%     87.05% # Number of branches that got squashed (completely removed) as an earlier branch was mispredicted. (Count)
system.cpu.branchPred.squashes_0::DirectUncond          728     12.88%     99.93% # Number of branches that got squashed (completely removed) as an earlier branch was mispredicted. (Count)
system.cpu.branchPred.squashes_0::IndirectCond            0      0.00%     99.93% # Number of branches that got squashed (completely removed) as an earlier branch was mispredicted. (Count)
system.cpu.branchPred.squashes_0::IndirectUncond            4      0.07%    100.00% # Number of branches that got squashed (completely removed) as an earlier branch was mispredicted. (Count)
system.cpu.branchPred.squashes_0::total          5651                       # Number of branches that got squashed (completely removed) as an earlier branch was mispredicted. (Count)
system.cpu.branchPred.corrected_0::NoBranch          381     12.95%     12.95% # Number of branches that got corrected but not yet commited. Branches get corrected by decode or after execute. Also a branch misprediction can be detected out-of-order. Therefore, a corrected branch might not end up beeing committed in case an even earlier branch was mispredicted (Count)
system.cpu.branchPred.corrected_0::Return            0      0.00%     12.95% # Number of branches that got corrected but not yet commited. Branches get corrected by decode or after execute. Also a branch misprediction can be detected out-of-order. Therefore, a corrected branch might not end up beeing committed in case an even earlier branch was mispredicted (Count)
system.cpu.branchPred.corrected_0::CallDirect          227      7.72%     20.67% # Number of branches that got corrected but not yet commited. Branches get corrected by decode or after execute. Also a branch misprediction can be detected out-of-order. Therefore, a corrected branch might not end up beeing committed in case an even earlier branch was mispredicted (Count)
system.cpu.branchPred.corrected_0::CallIndirect           28      0.95%     21.62% # Number of branches that got corrected but not yet commited. Branches get corrected by decode or after execute. Also a branch misprediction can be detected out-of-order. Therefore, a corrected branch might not end up beeing committed in case an even earlier branch was mispredicted (Count)
system.cpu.branchPred.corrected_0::DirectCond         2108     71.65%     93.27% # Number of branches that got corrected but not yet commited. Branches get corrected by decode or after execute. Also a branch misprediction can be detected out-of-order. Therefore, a corrected branch might not end up beeing committed in case an even earlier branch was mispredicted (Count)
system.cpu.branchPred.corrected_0::DirectUncond          172      5.85%     99.12% # Number of branches that got corrected but not yet commited. Branches get corrected by decode or after execute. Also a branch misprediction can be detected out-of-order. Therefore, a corrected branch might not end up beeing committed in case an even earlier branch was mispredicted (Count)
system.cpu.branchPred.corrected_0::IndirectCond            0      0.00%     99.12% # Number of branches that got corrected but not yet commited. Branches get corrected by decode or after execute. Also a branch misprediction can be detected out-of-order. Therefore, a corrected branch might not end up beeing committed in case an even earlier branch was mispredicted (Count)
system.cpu.branchPred.corrected_0::IndirectUncond           26      0.88%    100.00% # Number of branches that got corrected but not yet commited. Branches get corrected by decode or after execute. Also a branch misprediction can be detected out-of-order. Therefore, a corrected branch might not end up beeing committed in case an even earlier branch was mispredicted (Count)
system.cpu.branchPred.corrected_0::total         2942                       # Number of branches that got corrected but not yet commited. Branches get corrected by decode or after execute. Also a branch misprediction can be detected out-of-order. Therefore, a corrected branch might not end up beeing committed in case an even earlier branch was mispredicted (Count)
system.cpu.branchPred.earlyResteers_0::NoBranch            0                       # Number of branches that got redirected after decode. (Count)
system.cpu.branchPred.earlyResteers_0::Return            0                       # Number of branches that got redirected after decode. (Count)
system.cpu.branchPred.earlyResteers_0::CallDirect            0                       # Number of branches that got redirected after decode. (Count)
system.cpu.branchPred.earlyResteers_0::CallIndirect            0                       # Number of branches that got redirected after decode. (Count)
system.cpu.branchPred.earlyResteers_0::DirectCond            0                       # Number of branches that got redirected after decode. (Count)
system.cpu.branchPred.earlyResteers_0::DirectUncond            0                       # Number of branches that got redirected after decode. (Count)
system.cpu.branchPred.earlyResteers_0::IndirectCond            0                       # Number of branches that got redirected after decode. (Count)
system.cpu.branchPred.earlyResteers_0::IndirectUncond            0                       # Number of branches that got redirected after decode. (Count)
system.cpu.branchPred.earlyResteers_0::total            0                       # Number of branches that got redirected after decode. (Count)
system.cpu.branchPred.committed_0::NoBranch          381      0.00%      0.00% # Number of branches finally committed  (Count)
system.cpu.branchPred.committed_0::Return         2731      0.00%      0.00% # Number of branches finally committed  (Count)
system.cpu.branchPred.committed_0::CallDirect         2690      0.00%      0.01% # Number of branches finally committed  (Count)
system.cpu.branchPred.committed_0::CallIndirect           42      0.00%      0.01% # Number of branches finally committed  (Count)
system.cpu.branchPred.committed_0::DirectCond     70015085     95.88%     95.89% # Number of branches finally committed  (Count)
system.cpu.branchPred.committed_0::DirectUncond      3002099      4.11%    100.00% # Number of branches finally committed  (Count)
system.cpu.branchPred.committed_0::IndirectCond            0      0.00%    100.00% # Number of branches finally committed  (Count)
system.cpu.branchPred.committed_0::IndirectUncond           73      0.00%    100.00% # Number of branches finally committed  (Count)
system.cpu.branchPred.committed_0::total     73023101                       # Number of branches finally committed  (Count)
system.cpu.branchPred.mispredicted_0::NoBranch          381     12.95%     12.95% # Number of committed branches that were mispredicted. (Count)
system.cpu.branchPred.mispredicted_0::Return            0      0.00%     12.95% # Number of committed branches that were mispredicted. (Count)
system.cpu.branchPred.mispredicted_0::CallDirect          227      7.72%     20.67% # Number of committed branches that were mispredicted. (Count)
system.cpu.branchPred.mispredicted_0::CallIndirect           28      0.95%     21.62% # Number of committed branches that were mispredicted. (Count)
system.cpu.branchPred.mispredicted_0::DirectCond         2108     71.65%     93.27% # Number of committed branches that were mispredicted. (Count)
system.cpu.branchPred.mispredicted_0::DirectUncond          172      5.85%     99.12% # Number of committed branches that were mispredicted. (Count)
system.cpu.branchPred.mispredicted_0::IndirectCond            0      0.00%     99.12% # Number of committed branches that were mispredicted. (Count)
system.cpu.branchPred.mispredicted_0::IndirectUncond           26      0.88%    100.00% # Number of committed branches that were mispredicted. (Count)
system.cpu.branchPred.mispredicted_0::total         2942                       # Number of committed branches that were mispredicted. (Count)
system.cpu.branchPred.mispredictDueToPredictor_0::NoBranch            0      0.00%      0.00% # Number of committed branches that were mispredicted by the predictor. (Count)
system.cpu.branchPred.mispredictDueToPredictor_0::Return            0      0.00%      0.00% # Number of committed branches that were mispredicted by the predictor. (Count)
system.cpu.branchPred.mispredictDueToPredictor_0::CallDirect            0      0.00%      0.00% # Number of committed branches that were mispredicted by the predictor. (Count)
system.cpu.branchPred.mispredictDueToPredictor_0::CallIndirect            0      0.00%      0.00% # Number of committed branches that were mispredicted by the predictor. (Count)
system.cpu.branchPred.mispredictDueToPredictor_0::DirectCond         1484     99.93%     99.93% # Number of committed branches that were mispredicted by the predictor. (Count)
system.cpu.branchPred.mispredictDueToPredictor_0::DirectUncond            0      0.00%     99.93% # Number of committed branches that were mispredicted by the predictor. (Count)
system.cpu.branchPred.mispredictDueToPredictor_0::IndirectCond            0      0.00%     99.93% # Number of committed branches that were mispredicted by the predictor. (Count)
system.cpu.branchPred.mispredictDueToPredictor_0::IndirectUncond            1      0.07%    100.00% # Number of committed branches that were mispredicted by the predictor. (Count)
system.cpu.branchPred.mispredictDueToPredictor_0::total         1485                       # Number of committed branches that were mispredicted by the predictor. (Count)
system.cpu.branchPred.mispredictDueToBTBMiss_0::NoBranch          381     26.15%     26.15% # Number of committed branches that were mispredicted because of a BTB miss. (Count)
system.cpu.branchPred.mispredictDueToBTBMiss_0::Return            0      0.00%     26.15% # Number of committed branches that were mispredicted because of a BTB miss. (Count)
system.cpu.branchPred.mispredictDueToBTBMiss_0::CallDirect          227     15.58%     41.73% # Number of committed branches that were mispredicted because of a BTB miss. (Count)
system.cpu.branchPred.mispredictDueToBTBMiss_0::CallIndirect           28      1.92%     43.65% # Number of committed branches that were mispredicted because of a BTB miss. (Count)
system.cpu.branchPred.mispredictDueToBTBMiss_0::DirectCond          624     42.83%     86.48% # Number of committed branches that were mispredicted because of a BTB miss. (Count)
system.cpu.branchPred.mispredictDueToBTBMiss_0::DirectUncond          172     11.81%     98.28% # Number of committed branches that were mispredicted because of a BTB miss. (Count)
system.cpu.branchPred.mispredictDueToBTBMiss_0::IndirectCond            0      0.00%     98.28% # Number of committed branches that were mispredicted because of a BTB miss. (Count)
system.cpu.branchPred.mispredictDueToBTBMiss_0::IndirectUncond           25      1.72%    100.00% # Number of committed branches that were mispredicted because of a BTB miss. (Count)
system.cpu.branchPred.mispredictDueToBTBMiss_0::total         1457                       # Number of committed branches that were mispredicted because of a BTB miss. (Count)
system.cpu.branchPred.targetProvider_0::NoTarget        14031      0.02%      0.02% # The component providing the target for taken branches (Count)
system.cpu.branchPred.targetProvider_0::BTB     73011284     99.98%    100.00% # The component providing the target for taken branches (Count)
system.cpu.branchPred.targetProvider_0::RAS         3394      0.00%    100.00% # The component providing the target for taken branches (Count)
system.cpu.branchPred.targetProvider_0::Indirect           48      0.00%    100.00% # The component providing the target for taken branches (Count)
system.cpu.branchPred.targetProvider_0::total     73028757                       # The component providing the target for taken branches (Count)
system.cpu.branchPred.targetWrong_0::NoBranch         2050     80.05%     80.05% # Number of branches where the target was incorrect or not available at prediction time. (Count)
system.cpu.branchPred.targetWrong_0::Return          509     19.88%     99.92% # Number of branches where the target was incorrect or not available at prediction time. (Count)
system.cpu.branchPred.targetWrong_0::CallDirect            0      0.00%     99.92% # Number of branches where the target was incorrect or not available at prediction time. (Count)
system.cpu.branchPred.targetWrong_0::CallIndirect            2      0.08%    100.00% # Number of branches where the target was incorrect or not available at prediction time. (Count)
system.cpu.branchPred.targetWrong_0::DirectCond            0      0.00%    100.00% # Number of branches where the target was incorrect or not available at prediction time. (Count)
system.cpu.branchPred.targetWrong_0::DirectUncond            0      0.00%    100.00% # Number of branches where the target was incorrect or not available at prediction time. (Count)
system.cpu.branchPred.targetWrong_0::IndirectCond            0      0.00%    100.00% # Number of branches where the target was incorrect or not available at prediction time. (Count)
system.cpu.branchPred.targetWrong_0::IndirectUncond            0      0.00%    100.00% # Number of branches where the target was incorrect or not available at prediction time. (Count)
system.cpu.branchPred.targetWrong_0::total         2561                       # Number of branches where the target was incorrect or not available at prediction time. (Count)
system.cpu.branchPred.condPredicted          70019164                       # Number of conditional branches predicted (Count)
system.cpu.branchPred.condPredictedTaken     70008042                       # Number of conditional branches predicted as taken (Count)
system.cpu.branchPred.condIncorrect              2942                       # Number of conditional branches incorrect (Count)
system.cpu.branchPred.predTakenBTBMiss            763                       # Number of branches predicted taken but missed in BTB (Count)
system.cpu.branchPred.BTBLookups             73028757                       # Number of BTB lookups (Count)
system.cpu.branchPred.BTBUpdates                 1998                       # Number of BTB updates (Count)
system.cpu.branchPred.BTBHits                73015889                       # Number of BTB hits (Count)
system.cpu.branchPred.BTBHitRatio            0.999824                       # BTB Hit Ratio (Ratio)
system.cpu.branchPred.BTBMispredicted            1023                       # Number BTB mispredictions. No target found or target wrong (Count)
system.cpu.branchPred.indirectLookups             145                       # Number of indirect predictor lookups. (Count)
system.cpu.branchPred.indirectHits                 48                       # Number of indirect target hits. (Count)
system.cpu.branchPred.indirectMisses               97                       # Number of indirect misses. (Count)
system.cpu.branchPred.indirectMispredicted            0                       # Number of mispredicted indirect branches. (Count)
system.cpu.branchPred.btb.lookups::NoBranch          385      0.00%      0.00% # Number of BTB lookups (Count)
system.cpu.branchPred.btb.lookups::Return         3394      0.00%      0.01% # Number of BTB lookups (Count)
system.cpu.branchPred.btb.lookups::CallDirect         3225      0.00%      0.01% # Number of BTB lookups (Count)
system.cpu.branchPred.btb.lookups::CallIndirect           68      0.00%      0.01% # Number of BTB lookups (Count)
system.cpu.branchPred.btb.lookups::DirectCond     70018779     95.88%     95.89% # Number of BTB lookups (Count)
system.cpu.branchPred.btb.lookups::DirectUncond      3002829      4.11%    100.00% # Number of BTB lookups (Count)
system.cpu.branchPred.btb.lookups::IndirectCond            0      0.00%    100.00% # Number of BTB lookups (Count)
system.cpu.branchPred.btb.lookups::IndirectUncond           77      0.00%    100.00% # Number of BTB lookups (Count)
system.cpu.branchPred.btb.lookups::total     73028757                       # Number of BTB lookups (Count)
system.cpu.branchPred.btb.misses::NoBranch          385      2.99%      2.99% # Number of BTB misses (Count)
system.cpu.branchPred.btb.misses::Return         3394     26.38%     29.37% # Number of BTB misses (Count)
system.cpu.branchPred.btb.misses::CallDirect          580      4.51%     33.87% # Number of BTB misses (Count)
system.cpu.branchPred.btb.misses::CallIndirect           68      0.53%     34.40% # Number of BTB misses (Count)
system.cpu.branchPred.btb.misses::DirectCond         7723     60.02%     94.42% # Number of BTB misses (Count)
system.cpu.branchPred.btb.misses::DirectUncond          641      4.98%     99.40% # Number of BTB misses (Count)
system.cpu.branchPred.btb.misses::IndirectCond            0      0.00%     99.40% # Number of BTB misses (Count)
system.cpu.branchPred.btb.misses::IndirectUncond           77      0.60%    100.00% # Number of BTB misses (Count)
system.cpu.branchPred.btb.misses::total         12868                       # Number of BTB misses (Count)
system.cpu.branchPred.btb.updates::NoBranch            0      0.00%      0.00% # Number of BTB updates (Count)
system.cpu.branchPred.btb.updates::Return            0      0.00%      0.00% # Number of BTB updates (Count)
system.cpu.branchPred.btb.updates::CallDirect          227     11.36%     11.36% # Number of BTB updates (Count)
system.cpu.branchPred.btb.updates::CallIndirect            0      0.00%     11.36% # Number of BTB updates (Count)
system.cpu.branchPred.btb.updates::DirectCond         1599     80.03%     91.39% # Number of BTB updates (Count)
system.cpu.branchPred.btb.updates::DirectUncond          172      8.61%    100.00% # Number of BTB updates (Count)
system.cpu.branchPred.btb.updates::IndirectCond            0      0.00%    100.00% # Number of BTB updates (Count)
system.cpu.branchPred.btb.updates::IndirectUncond            0      0.00%    100.00% # Number of BTB updates (Count)
system.cpu.branchPred.btb.updates::total         1998                       # Number of BTB updates (Count)
system.cpu.branchPred.btb.mispredict::NoBranch            0      0.00%      0.00% # Number of BTB mispredictions. No target found or target wrong. (Count)
system.cpu.branchPred.btb.mispredict::Return            0      0.00%      0.00% # Number of BTB mispredictions. No target found or target wrong. (Count)
system.cpu.branchPred.btb.mispredict::CallDirect          227     11.36%     11.36% # Number of BTB mispredictions. No target found or target wrong. (Count)
system.cpu.branchPred.btb.mispredict::CallIndirect            0      0.00%     11.36% # Number of BTB mispredictions. No target found or target wrong. (Count)
system.cpu.branchPred.btb.mispredict::DirectCond         1599     80.03%     91.39% # Number of BTB mispredictions. No target found or target wrong. (Count)
system.cpu.branchPred.btb.mispredict::DirectUncond          172      8.61%    100.00% # Number of BTB mispredictions. No target found or target wrong. (Count)
system.cpu.branchPred.btb.mispredict::IndirectCond            0      0.00%    100.00% # Number of BTB mispredictions. No target found or target wrong. (Count)
system.cpu.branchPred.btb.mispredict::IndirectUncond            0      0.00%    100.00% # Number of BTB mispredictions. No target found or target wrong. (Count)
system.cpu.branchPred.btb.mispredict::total         1998                       # Number of BTB mispredictions. No target found or target wrong. (Count)
system.cpu.branchPred.btb.power_state.pwrStateResidencyTicks::UNDEFINED 3219403995000                       # Cumulative time (in ticks) in various power states (Tick)
system.cpu.branchPred.indirectBranchPred.lookups          145                       # Number of lookups (Count)
system.cpu.branchPred.indirectBranchPred.hits           48                       # Number of hits of a tag (Count)
system.cpu.branchPred.indirectBranchPred.misses           97                       # Number of misses (Count)
system.cpu.branchPred.indirectBranchPred.targetRecords           53                       # Number of targets that where recorded/installed in the cache (Count)
system.cpu.branchPred.indirectBranchPred.indirectRecords          199                       # Number of indirect branches/calls recorded in the indirect hist (Count)
system.cpu.branchPred.indirectBranchPred.speculativeOverflows            1                       # Number of times more than the allowed capacity for speculative branches/calls where in flight and destroy the path history (Count)
system.cpu.branchPred.ras.pushes                 3956                       # Number of times a PC was pushed onto the RAS (Count)
system.cpu.branchPred.ras.pops                   3954                       # Number of times a PC was poped from the RAS (Count)
system.cpu.branchPred.ras.squashes               1223                       # Number of times the stack operation was squashed due to wrong speculation. (Count)
system.cpu.branchPred.ras.used                   2731                       # Number of times the RAS is the provider (Count)
system.cpu.branchPred.ras.correct                2731                       # Number of times the RAS is the provider and the prediction is correct (Count)
system.cpu.branchPred.ras.incorrect                 0                       # Number of times the RAS is the provider and the prediction is wrong (Count)
system.cpu.commitStats0.numInsts           1272112945                       # Number of instructions committed (thread level) (Count)
system.cpu.commitStats0.numOps             1272112945                       # Number of ops (including micro ops) committed (thread level) (Count)
system.cpu.commitStats0.numInstsNotNOP              0                       # Number of instructions committed excluding NOPs or prefetches (Count)
system.cpu.commitStats0.numOpsNotNOP                0                       # Number of Ops (including micro ops) Simulated (Count)
system.cpu.commitStats0.cpi                  2.530753                       # CPI: cycles per instruction (thread level) ((Cycle/Count))
system.cpu.commitStats0.ipc                  0.395139                       # IPC: instructions per cycle (thread level) ((Count/Cycle))
system.cpu.commitStats0.numMemRefs                  0                       # Number of memory references committed (Count)
system.cpu.commitStats0.numFpInsts                  0                       # Number of float instructions (Count)
system.cpu.commitStats0.numIntInsts                 0                       # Number of integer instructions (Count)
system.cpu.commitStats0.numLoadInsts                0                       # Number of load instructions (Count)
system.cpu.commitStats0.numStoreInsts               0                       # Number of store instructions (Count)
system.cpu.commitStats0.numVecInsts                 0                       # Number of vector instructions (Count)
system.cpu.commitStats0.committedInstType::No_OpClass          592      0.00%      0.00% # Class of committed instruction. (Count)
system.cpu.commitStats0.committedInstType::IntAlu    783075699     61.56%     61.56% # Class of committed instruction. (Count)
system.cpu.commitStats0.committedInstType::IntMult          518      0.00%     61.56% # Class of committed instruction. (Count)
system.cpu.commitStats0.committedInstType::IntDiv           80      0.00%     61.56% # Class of committed instruction. (Count)
system.cpu.commitStats0.committedInstType::FloatAdd     30000726      2.36%     63.92% # Class of committed instruction. (Count)
system.cpu.commitStats0.committedInstType::FloatCmp      3000364      0.24%     64.15% # Class of committed instruction. (Count)
system.cpu.commitStats0.committedInstType::FloatCvt      3000911      0.24%     64.39% # Class of committed instruction. (Count)
system.cpu.commitStats0.committedInstType::FloatMult     20000395      1.57%     65.96% # Class of committed instruction. (Count)
system.cpu.commitStats0.committedInstType::FloatMultAcc           43      0.00%     65.96% # Class of committed instruction. (Count)
system.cpu.commitStats0.committedInstType::FloatDiv           18      0.00%     65.96% # Class of committed instruction. (Count)
system.cpu.commitStats0.committedInstType::FloatMisc          425      0.00%     65.96% # Class of committed instruction. (Count)
system.cpu.commitStats0.committedInstType::FloatSqrt            0      0.00%     65.96% # Class of committed instruction. (Count)
system.cpu.commitStats0.committedInstType::SimdAdd            0      0.00%     65.96% # Class of committed instruction. (Count)
system.cpu.commitStats0.committedInstType::SimdAddAcc            0      0.00%     65.96% # Class of committed instruction. (Count)
system.cpu.commitStats0.committedInstType::SimdAlu            0      0.00%     65.96% # Class of committed instruction. (Count)
system.cpu.commitStats0.committedInstType::SimdCmp            0      0.00%     65.96% # Class of committed instruction. (Count)
system.cpu.commitStats0.committedInstType::SimdCvt            0      0.00%     65.96% # Class of committed instruction. (Count)
system.cpu.commitStats0.committedInstType::SimdMisc            0      0.00%     65.96% # Class of committed instruction. (Count)
system.cpu.commitStats0.committedInstType::SimdMult            0      0.00%     65.96% # Class of committed instruction. (Count)
system.cpu.commitStats0.committedInstType::SimdMultAcc            0      0.00%     65.96% # Class of committed instruction. (Count)
system.cpu.commitStats0.committedInstType::SimdMatMultAcc            0      0.00%     65.96% # Class of committed instruction. (Count)
system.cpu.commitStats0.committedInstType::SimdShift            0      0.00%     65.96% # Class of committed instruction. (Count)
system.cpu.commitStats0.committedInstType::SimdShiftAcc            0      0.00%     65.96% # Class of committed instruction. (Count)
system.cpu.commitStats0.committedInstType::SimdDiv            0      0.00%     65.96% # Class of committed instruction. (Count)
system.cpu.commitStats0.committedInstType::SimdSqrt            0      0.00%     65.96% # Class of committed instruction. (Count)
system.cpu.commitStats0.committedInstType::SimdFloatAdd            0      0.00%     65.96% # Class of committed instruction. (Count)
system.cpu.commitStats0.committedInstType::SimdFloatAlu            0      0.00%     65.96% # Class of committed instruction. (Count)
system.cpu.commitStats0.committedInstType::SimdFloatCmp            0      0.00%     65.96% # Class of committed instruction. (Count)
system.cpu.commitStats0.committedInstType::SimdFloatCvt            0      0.00%     65.96% # Class of committed instruction. (Count)
system.cpu.commitStats0.committedInstType::SimdFloatDiv            0      0.00%     65.96% # Class of committed instruction. (Count)
system.cpu.commitStats0.committedInstType::SimdFloatMisc            0      0.00%     65.96% # Class of committed instruction. (Count)
system.cpu.commitStats0.committedInstType::SimdFloatMult            0      0.00%     65.96% # Class of committed instruction. (Count)
system.cpu.commitStats0.committedInstType::SimdFloatMultAcc            0      0.00%     65.96% # Class of committed instruction. (Count)
system.cpu.commitStats0.committedInstType::SimdFloatMatMultAcc            0      0.00%     65.96% # Class of committed instruction. (Count)
system.cpu.commitStats0.committedInstType::SimdFloatSqrt            0      0.00%     65.96% # Class of committed instruction. (Count)
system.cpu.commitStats0.committedInstType::SimdReduceAdd            0      0.00%     65.96% # Class of committed instruction. (Count)
system.cpu.commitStats0.committedInstType::SimdReduceAlu            0      0.00%     65.96% # Class of committed instruction. (Count)
system.cpu.commitStats0.committedInstType::SimdReduceCmp            0      0.00%     65.96% # Class of committed instruction. (Count)
system.cpu.commitStats0.committedInstType::SimdFloatReduceAdd            0      0.00%     65.96% # Class of committed instruction. (Count)
system.cpu.commitStats0.committedInstType::SimdFloatReduceCmp            0      0.00%     65.96% # Class of committed instruction. (Count)
system.cpu.commitStats0.committedInstType::SimdAes            0      0.00%     65.96% # Class of committed instruction. (Count)
system.cpu.commitStats0.committedInstType::SimdAesMix            0      0.00%     65.96% # Class of committed instruction. (Count)
system.cpu.commitStats0.committedInstType::SimdSha1Hash            0      0.00%     65.96% # Class of committed instruction. (Count)
system.cpu.commitStats0.committedInstType::SimdSha1Hash2            0      0.00%     65.96% # Class of committed instruction. (Count)
system.cpu.commitStats0.committedInstType::SimdSha256Hash            0      0.00%     65.96% # Class of committed instruction. (Count)
system.cpu.commitStats0.committedInstType::SimdSha256Hash2            0      0.00%     65.96% # Class of committed instruction. (Count)
system.cpu.commitStats0.committedInstType::SimdShaSigma2            0      0.00%     65.96% # Class of committed instruction. (Count)
system.cpu.commitStats0.committedInstType::SimdShaSigma3            0      0.00%     65.96% # Class of committed instruction. (Count)
system.cpu.commitStats0.committedInstType::SimdPredAlu            0      0.00%     65.96% # Class of committed instruction. (Count)
system.cpu.commitStats0.committedInstType::Matrix            0      0.00%     65.96% # Class of committed instruction. (Count)
system.cpu.commitStats0.committedInstType::MatrixMov            0      0.00%     65.96% # Class of committed instruction. (Count)
system.cpu.commitStats0.committedInstType::MatrixOP            0      0.00%     65.96% # Class of committed instruction. (Count)
system.cpu.commitStats0.committedInstType::MemRead    197017853     15.49%     81.45% # Class of committed instruction. (Count)
system.cpu.commitStats0.committedInstType::MemWrite     92013021      7.23%     88.68% # Class of committed instruction. (Count)
system.cpu.commitStats0.committedInstType::FloatMemRead     98001756      7.70%     96.38% # Class of committed instruction. (Count)
system.cpu.commitStats0.committedInstType::FloatMemWrite     46000544      3.62%    100.00% # Class of committed instruction. (Count)
system.cpu.commitStats0.committedInstType::IprAccess            0      0.00%    100.00% # Class of committed instruction. (Count)
system.cpu.commitStats0.committedInstType::InstPrefetch            0      0.00%    100.00% # Class of committed instruction. (Count)
system.cpu.commitStats0.committedInstType::SimdUnitStrideLoad            0      0.00%    100.00% # Class of committed instruction. (Count)
system.cpu.commitStats0.committedInstType::SimdUnitStrideStore            0      0.00%    100.00% # Class of committed instruction. (Count)
system.cpu.commitStats0.committedInstType::SimdUnitStrideMaskLoad            0      0.00%    100.00% # Class of committed instruction. (Count)
system.cpu.commitStats0.committedInstType::SimdUnitStrideMaskStore            0      0.00%    100.00% # Class of committed instruction. (Count)
system.cpu.commitStats0.committedInstType::SimdStridedLoad            0      0.00%    100.00% # Class of committed instruction. (Count)
system.cpu.commitStats0.committedInstType::SimdStridedStore            0      0.00%    100.00% # Class of committed instruction. (Count)
system.cpu.commitStats0.committedInstType::SimdIndexedLoad            0      0.00%    100.00% # Class of committed instruction. (Count)
system.cpu.commitStats0.committedInstType::SimdIndexedStore            0      0.00%    100.00% # Class of committed instruction. (Count)
system.cpu.commitStats0.committedInstType::SimdWholeRegisterLoad            0      0.00%    100.00% # Class of committed instruction. (Count)
system.cpu.commitStats0.committedInstType::SimdWholeRegisterStore            0      0.00%    100.00% # Class of committed instruction. (Count)
system.cpu.commitStats0.committedInstType::SimdUnitStrideFaultOnlyFirstLoad            0      0.00%    100.00% # Class of committed instruction. (Count)
system.cpu.commitStats0.committedInstType::SimdUnitStrideSegmentedLoad            0      0.00%    100.00% # Class of committed instruction. (Count)
system.cpu.commitStats0.committedInstType::SimdUnitStrideSegmentedStore            0      0.00%    100.00% # Class of committed instruction. (Count)
system.cpu.commitStats0.committedInstType::SimdUnitStrideSegmentedFaultOnlyFirstLoad            0      0.00%    100.00% # Class of committed instruction. (Count)
system.cpu.commitStats0.committedInstType::SimdStrideSegmentedLoad            0      0.00%    100.00% # Class of committed instruction. (Count)
system.cpu.commitStats0.committedInstType::SimdStrideSegmentedStore            0      0.00%    100.00% # Class of committed instruction. (Count)
system.cpu.commitStats0.committedInstType::SimdExt            0      0.00%    100.00% # Class of committed instruction. (Count)
system.cpu.commitStats0.committedInstType::SimdFloatExt            0      0.00%    100.00% # Class of committed instruction. (Count)
system.cpu.commitStats0.committedInstType::SimdConfig            0      0.00%    100.00% # Class of committed instruction. (Count)
system.cpu.commitStats0.committedInstType::total   1272112945                       # Class of committed instruction. (Count)
system.cpu.dcache.demandHits::cpu.data      227903400                       # number of demand (read+write) hits (Count)
system.cpu.dcache.demandHits::total         227903400                       # number of demand (read+write) hits (Count)
system.cpu.dcache.overallHits::cpu.data     227903400                       # number of overall hits (Count)
system.cpu.dcache.overallHits::total        227903400                       # number of overall hits (Count)
system.cpu.dcache.demandMisses::cpu.data    119000425                       # number of demand (read+write) misses (Count)
system.cpu.dcache.demandMisses::total       119000425                       # number of demand (read+write) misses (Count)
system.cpu.dcache.overallMisses::cpu.data    119000425                       # number of overall misses (Count)
system.cpu.dcache.overallMisses::total      119000425                       # number of overall misses (Count)
system.cpu.dcache.demandMissLatency::cpu.data 2579928531000                       # number of demand (read+write) miss ticks (Tick)
system.cpu.dcache.demandMissLatency::total 2579928531000                       # number of demand (read+write) miss ticks (Tick)
system.cpu.dcache.overallMissLatency::cpu.data 2579928531000                       # number of overall miss ticks (Tick)
system.cpu.dcache.overallMissLatency::total 2579928531000                       # number of overall miss ticks (Tick)
system.cpu.dcache.demandAccesses::cpu.data    346903825                       # number of demand (read+write) accesses (Count)
system.cpu.dcache.demandAccesses::total     346903825                       # number of demand (read+write) accesses (Count)
system.cpu.dcache.overallAccesses::cpu.data    346903825                       # number of overall (read+write) accesses (Count)
system.cpu.dcache.overallAccesses::total    346903825                       # number of overall (read+write) accesses (Count)
system.cpu.dcache.demandMissRate::cpu.data     0.343036                       # miss rate for demand accesses (Ratio)
system.cpu.dcache.demandMissRate::total      0.343036                       # miss rate for demand accesses (Ratio)
system.cpu.dcache.overallMissRate::cpu.data     0.343036                       # miss rate for overall accesses (Ratio)
system.cpu.dcache.overallMissRate::total     0.343036                       # miss rate for overall accesses (Ratio)
system.cpu.dcache.demandAvgMissLatency::cpu.data 21679.994261                       # average overall miss latency in ticks ((Tick/Count))
system.cpu.dcache.demandAvgMissLatency::total 21679.994261                       # average overall miss latency in ticks ((Tick/Count))
system.cpu.dcache.overallAvgMissLatency::cpu.data 21679.994261                       # average overall miss latency ((Tick/Count))
system.cpu.dcache.overallAvgMissLatency::total 21679.994261                       # average overall miss latency ((Tick/Count))
system.cpu.dcache.blockedCycles::no_mshrs            0                       # number of cycles access was blocked (Cycle)
system.cpu.dcache.blockedCycles::no_targets            0                       # number of cycles access was blocked (Cycle)
system.cpu.dcache.blockedCauses::no_mshrs            0                       # number of times access was blocked (Count)
system.cpu.dcache.blockedCauses::no_targets            0                       # number of times access was blocked (Count)
system.cpu.dcache.avgBlocked::no_mshrs            nan                       # average number of cycles each access was blocked ((Cycle/Count))
system.cpu.dcache.avgBlocked::no_targets          nan                       # average number of cycles each access was blocked ((Cycle/Count))
system.cpu.dcache.writebacks::writebacks     49999730                       # number of writebacks (Count)
system.cpu.dcache.writebacks::total          49999730                       # number of writebacks (Count)
system.cpu.dcache.demandMshrHits::cpu.data      6000114                       # number of demand (read+write) MSHR hits (Count)
system.cpu.dcache.demandMshrHits::total       6000114                       # number of demand (read+write) MSHR hits (Count)
system.cpu.dcache.overallMshrHits::cpu.data      6000114                       # number of overall MSHR hits (Count)
system.cpu.dcache.overallMshrHits::total      6000114                       # number of overall MSHR hits (Count)
system.cpu.dcache.demandMshrMisses::cpu.data    113000311                       # number of demand (read+write) MSHR misses (Count)
system.cpu.dcache.demandMshrMisses::total    113000311                       # number of demand (read+write) MSHR misses (Count)
system.cpu.dcache.overallMshrMisses::cpu.data    113000311                       # number of overall MSHR misses (Count)
system.cpu.dcache.overallMshrMisses::total    113000311                       # number of overall MSHR misses (Count)
system.cpu.dcache.demandMshrMissLatency::cpu.data 2365546281000                       # number of demand (read+write) MSHR miss ticks (Tick)
system.cpu.dcache.demandMshrMissLatency::total 2365546281000                       # number of demand (read+write) MSHR miss ticks (Tick)
system.cpu.dcache.overallMshrMissLatency::cpu.data 2365546281000                       # number of overall MSHR miss ticks (Tick)
system.cpu.dcache.overallMshrMissLatency::total 2365546281000                       # number of overall MSHR miss ticks (Tick)
system.cpu.dcache.demandMshrMissRate::cpu.data     0.325740                       # mshr miss ratio for demand accesses (Ratio)
system.cpu.dcache.demandMshrMissRate::total     0.325740                       # mshr miss ratio for demand accesses (Ratio)
system.cpu.dcache.overallMshrMissRate::cpu.data     0.325740                       # mshr miss ratio for overall accesses (Ratio)
system.cpu.dcache.overallMshrMissRate::total     0.325740                       # mshr miss ratio for overall accesses (Ratio)
system.cpu.dcache.demandAvgMshrMissLatency::cpu.data 20933.980270                       # average overall mshr miss latency ((Tick/Count))
system.cpu.dcache.demandAvgMshrMissLatency::total 20933.980270                       # average overall mshr miss latency ((Tick/Count))
system.cpu.dcache.overallAvgMshrMissLatency::cpu.data 20933.980270                       # average overall mshr miss latency ((Tick/Count))
system.cpu.dcache.overallAvgMshrMissLatency::total 20933.980270                       # average overall mshr miss latency ((Tick/Count))
system.cpu.dcache.replacements              112999287                       # number of replacements (Count)
system.cpu.dcache.ReadReq.hits::cpu.data    144890108                       # number of ReadReq hits (Count)
system.cpu.dcache.ReadReq.hits::total       144890108                       # number of ReadReq hits (Count)
system.cpu.dcache.ReadReq.misses::cpu.data     64000153                       # number of ReadReq misses (Count)
system.cpu.dcache.ReadReq.misses::total      64000153                       # number of ReadReq misses (Count)
system.cpu.dcache.ReadReq.missLatency::cpu.data 1371826824000                       # number of ReadReq miss ticks (Tick)
system.cpu.dcache.ReadReq.missLatency::total 1371826824000                       # number of ReadReq miss ticks (Tick)
system.cpu.dcache.ReadReq.accesses::cpu.data    208890261                       # number of ReadReq accesses(hits+misses) (Count)
system.cpu.dcache.ReadReq.accesses::total    208890261                       # number of ReadReq accesses(hits+misses) (Count)
system.cpu.dcache.ReadReq.missRate::cpu.data     0.306382                       # miss rate for ReadReq accesses (Ratio)
system.cpu.dcache.ReadReq.missRate::total     0.306382                       # miss rate for ReadReq accesses (Ratio)
system.cpu.dcache.ReadReq.avgMissLatency::cpu.data 21434.742883                       # average ReadReq miss latency ((Tick/Count))
system.cpu.dcache.ReadReq.avgMissLatency::total 21434.742883                       # average ReadReq miss latency ((Tick/Count))
system.cpu.dcache.ReadReq.mshrHits::cpu.data            2                       # number of ReadReq MSHR hits (Count)
system.cpu.dcache.ReadReq.mshrHits::total            2                       # number of ReadReq MSHR hits (Count)
system.cpu.dcache.ReadReq.mshrMisses::cpu.data     64000151                       # number of ReadReq MSHR misses (Count)
system.cpu.dcache.ReadReq.mshrMisses::total     64000151                       # number of ReadReq MSHR misses (Count)
system.cpu.dcache.ReadReq.mshrMissLatency::cpu.data 1307826502000                       # number of ReadReq MSHR miss ticks (Tick)
system.cpu.dcache.ReadReq.mshrMissLatency::total 1307826502000                       # number of ReadReq MSHR miss ticks (Tick)
system.cpu.dcache.ReadReq.mshrMissRate::cpu.data     0.306382                       # mshr miss rate for ReadReq accesses (Ratio)
system.cpu.dcache.ReadReq.mshrMissRate::total     0.306382                       # mshr miss rate for ReadReq accesses (Ratio)
system.cpu.dcache.ReadReq.avgMshrMissLatency::cpu.data 20434.740881                       # average ReadReq mshr miss latency ((Tick/Count))
system.cpu.dcache.ReadReq.avgMshrMissLatency::total 20434.740881                       # average ReadReq mshr miss latency ((Tick/Count))
system.cpu.dcache.WriteReq.hits::cpu.data     83013292                       # number of WriteReq hits (Count)
system.cpu.dcache.WriteReq.hits::total       83013292                       # number of WriteReq hits (Count)
system.cpu.dcache.WriteReq.misses::cpu.data     55000272                       # number of WriteReq misses (Count)
system.cpu.dcache.WriteReq.misses::total     55000272                       # number of WriteReq misses (Count)
system.cpu.dcache.WriteReq.missLatency::cpu.data 1208101707000                       # number of WriteReq miss ticks (Tick)
system.cpu.dcache.WriteReq.missLatency::total 1208101707000                       # number of WriteReq miss ticks (Tick)
system.cpu.dcache.WriteReq.accesses::cpu.data    138013564                       # number of WriteReq accesses(hits+misses) (Count)
system.cpu.dcache.WriteReq.accesses::total    138013564                       # number of WriteReq accesses(hits+misses) (Count)
system.cpu.dcache.WriteReq.missRate::cpu.data     0.398514                       # miss rate for WriteReq accesses (Ratio)
system.cpu.dcache.WriteReq.missRate::total     0.398514                       # miss rate for WriteReq accesses (Ratio)
system.cpu.dcache.WriteReq.avgMissLatency::cpu.data 21965.376953                       # average WriteReq miss latency ((Tick/Count))
system.cpu.dcache.WriteReq.avgMissLatency::total 21965.376953                       # average WriteReq miss latency ((Tick/Count))
system.cpu.dcache.WriteReq.mshrHits::cpu.data      6000112                       # number of WriteReq MSHR hits (Count)
system.cpu.dcache.WriteReq.mshrHits::total      6000112                       # number of WriteReq MSHR hits (Count)
system.cpu.dcache.WriteReq.mshrMisses::cpu.data     49000160                       # number of WriteReq MSHR misses (Count)
system.cpu.dcache.WriteReq.mshrMisses::total     49000160                       # number of WriteReq MSHR misses (Count)
system.cpu.dcache.WriteReq.mshrMissLatency::cpu.data 1057719779000                       # number of WriteReq MSHR miss ticks (Tick)
system.cpu.dcache.WriteReq.mshrMissLatency::total 1057719779000                       # number of WriteReq MSHR miss ticks (Tick)
system.cpu.dcache.WriteReq.mshrMissRate::cpu.data     0.355039                       # mshr miss rate for WriteReq accesses (Ratio)
system.cpu.dcache.WriteReq.mshrMissRate::total     0.355039                       # mshr miss rate for WriteReq accesses (Ratio)
system.cpu.dcache.WriteReq.avgMshrMissLatency::cpu.data 21586.047454                       # average WriteReq mshr miss latency ((Tick/Count))
system.cpu.dcache.WriteReq.avgMshrMissLatency::total 21586.047454                       # average WriteReq mshr miss latency ((Tick/Count))
system.cpu.dcache.power_state.pwrStateResidencyTicks::UNDEFINED 3219403995000                       # Cumulative time (in ticks) in various power states (Tick)
system.cpu.dcache.tags.tagsInUse          1023.992999                       # Average ticks per tags in use ((Tick/Count))
system.cpu.dcache.tags.totalRefs            340903711                       # Total number of references to valid blocks. (Count)
system.cpu.dcache.tags.sampledRefs          113000311                       # Sample count of references to valid blocks. (Count)
system.cpu.dcache.tags.avgRefs               3.016839                       # Average number of references to valid blocks. ((Count/Count))
system.cpu.dcache.tags.warmupTick              527000                       # The tick when the warmup percentage was hit. (Tick)
system.cpu.dcache.tags.occupancies::cpu.data  1023.992999                       # Average occupied blocks per tick, per requestor ((Count/Tick))
system.cpu.dcache.tags.avgOccs::cpu.data     0.999993                       # Average percentage of cache occupancy ((Ratio/Tick))
system.cpu.dcache.tags.avgOccs::total        0.999993                       # Average percentage of cache occupancy ((Ratio/Tick))
system.cpu.dcache.tags.occupanciesTaskId::1024         1024                       # Occupied blocks per task id (Count)
system.cpu.dcache.tags.ageTaskId_1024::0           12                       # Occupied blocks per task id, per block age (Count)
system.cpu.dcache.tags.ageTaskId_1024::1          502                       # Occupied blocks per task id, per block age (Count)
system.cpu.dcache.tags.ageTaskId_1024::4          510                       # Occupied blocks per task id, per block age (Count)
system.cpu.dcache.tags.ratioOccsTaskId::1024            1                       # Ratio of occupied blocks and all blocks, per task id (Ratio)
system.cpu.dcache.tags.tagAccesses        11213922711                       # Number of tag accesses (Count)
system.cpu.dcache.tags.dataAccesses       11213922711                       # Number of data accesses (Count)
system.cpu.dcache.tags.power_state.pwrStateResidencyTicks::UNDEFINED 3219403995000                       # Cumulative time (in ticks) in various power states (Tick)
system.cpu.executeStats0.numInsts                   0                       # Number of executed instructions (Count)
system.cpu.executeStats0.numNop                     0                       # Number of nop insts executed (Count)
system.cpu.executeStats0.numBranches                0                       # Number of branches executed (Count)
system.cpu.executeStats0.numLoadInsts               0                       # Number of load instructions executed (Count)
system.cpu.executeStats0.numStoreInsts              0                       # Number of stores executed (Count)
system.cpu.executeStats0.instRate                   0                       # Inst execution rate ((Count/Cycle))
system.cpu.executeStats0.numFpRegWrites             0                       # Number of times the floating registers were written (Count)
system.cpu.executeStats0.numMemRefs                 0                       # Number of memory refs (Count)
system.cpu.executeStats0.numVecAluAccesses            0                       # Number of vector alu accesses (Count)
system.cpu.executeStats0.numDiscardedOps         7724                       # Number of ops (including micro ops) which were discarded before commit (Count)
system.cpu.fetch2.intInstructions           780094586                       # Number of integer instructions successfully decoded (Count)
system.cpu.fetch2.fpInstructions             56003360                       # Number of floating point instructions successfully decoded (Count)
system.cpu.fetch2.vecInstructions                   0                       # Number of SIMD instructions successfully decoded (Count)
system.cpu.fetch2.loadInstructions          295024893                       # Number of memory load instructions successfully decoded (Count)
system.cpu.fetch2.storeInstructions         138016164                       # Number of memory store instructions successfully decoded (Count)
system.cpu.fetch2.amoInstructions                   0                       # Number of memory atomic instructions successfully decoded (Count)
system.cpu.fetchStats0.numInsts                     0                       # Number of instructions fetched (thread level) (Count)
system.cpu.fetchStats0.numOps                       0                       # Number of ops (including micro ops) fetched (thread level) (Count)
system.cpu.fetchStats0.fetchRate                    0                       # Number of inst fetches per cycle ((Count/Cycle))
system.cpu.fetchStats0.branchRate                   0                       # Number of branch fetches per cycle (Ratio)
system.cpu.fetchStats0.numFetchSuspends             0                       # Number of times Execute suspended instruction fetching (Count)
system.cpu.icache.demandHits::cpu.inst      238164434                       # number of demand (read+write) hits (Count)
system.cpu.icache.demandHits::total         238164434                       # number of demand (read+write) hits (Count)
system.cpu.icache.overallHits::cpu.inst     238164434                       # number of overall hits (Count)
system.cpu.icache.overallHits::total        238164434                       # number of overall hits (Count)
system.cpu.icache.demandMisses::cpu.inst          443                       # number of demand (read+write) misses (Count)
system.cpu.icache.demandMisses::total             443                       # number of demand (read+write) misses (Count)
system.cpu.icache.overallMisses::cpu.inst          443                       # number of overall misses (Count)
system.cpu.icache.overallMisses::total            443                       # number of overall misses (Count)
system.cpu.icache.demandMissLatency::cpu.inst     17726000                       # number of demand (read+write) miss ticks (Tick)
system.cpu.icache.demandMissLatency::total     17726000                       # number of demand (read+write) miss ticks (Tick)
system.cpu.icache.overallMissLatency::cpu.inst     17726000                       # number of overall miss ticks (Tick)
system.cpu.icache.overallMissLatency::total     17726000                       # number of overall miss ticks (Tick)
system.cpu.icache.demandAccesses::cpu.inst    238164877                       # number of demand (read+write) accesses (Count)
system.cpu.icache.demandAccesses::total     238164877                       # number of demand (read+write) accesses (Count)
system.cpu.icache.overallAccesses::cpu.inst    238164877                       # number of overall (read+write) accesses (Count)
system.cpu.icache.overallAccesses::total    238164877                       # number of overall (read+write) accesses (Count)
system.cpu.icache.demandMissRate::cpu.inst     0.000002                       # miss rate for demand accesses (Ratio)
system.cpu.icache.demandMissRate::total      0.000002                       # miss rate for demand accesses (Ratio)
system.cpu.icache.overallMissRate::cpu.inst     0.000002                       # miss rate for overall accesses (Ratio)
system.cpu.icache.overallMissRate::total     0.000002                       # miss rate for overall accesses (Ratio)
system.cpu.icache.demandAvgMissLatency::cpu.inst 40013.544018                       # average overall miss latency in ticks ((Tick/Count))
system.cpu.icache.demandAvgMissLatency::total 40013.544018                       # average overall miss latency in ticks ((Tick/Count))
system.cpu.icache.overallAvgMissLatency::cpu.inst 40013.544018                       # average overall miss latency ((Tick/Count))
system.cpu.icache.overallAvgMissLatency::total 40013.544018                       # average overall miss latency ((Tick/Count))
system.cpu.icache.blockedCycles::no_mshrs            0                       # number of cycles access was blocked (Cycle)
system.cpu.icache.blockedCycles::no_targets            0                       # number of cycles access was blocked (Cycle)
system.cpu.icache.blockedCauses::no_mshrs            0                       # number of times access was blocked (Count)
system.cpu.icache.blockedCauses::no_targets            0                       # number of times access was blocked (Count)
system.cpu.icache.avgBlocked::no_mshrs            nan                       # average number of cycles each access was blocked ((Cycle/Count))
system.cpu.icache.avgBlocked::no_targets          nan                       # average number of cycles each access was blocked ((Cycle/Count))
system.cpu.icache.demandMshrMisses::cpu.inst          443                       # number of demand (read+write) MSHR misses (Count)
system.cpu.icache.demandMshrMisses::total          443                       # number of demand (read+write) MSHR misses (Count)
system.cpu.icache.overallMshrMisses::cpu.inst          443                       # number of overall MSHR misses (Count)
system.cpu.icache.overallMshrMisses::total          443                       # number of overall MSHR misses (Count)
system.cpu.icache.demandMshrMissLatency::cpu.inst     17283000                       # number of demand (read+write) MSHR miss ticks (Tick)
system.cpu.icache.demandMshrMissLatency::total     17283000                       # number of demand (read+write) MSHR miss ticks (Tick)
system.cpu.icache.overallMshrMissLatency::cpu.inst     17283000                       # number of overall MSHR miss ticks (Tick)
system.cpu.icache.overallMshrMissLatency::total     17283000                       # number of overall MSHR miss ticks (Tick)
system.cpu.icache.demandMshrMissRate::cpu.inst     0.000002                       # mshr miss ratio for demand accesses (Ratio)
system.cpu.icache.demandMshrMissRate::total     0.000002                       # mshr miss ratio for demand accesses (Ratio)
system.cpu.icache.overallMshrMissRate::cpu.inst     0.000002                       # mshr miss ratio for overall accesses (Ratio)
system.cpu.icache.overallMshrMissRate::total     0.000002                       # mshr miss ratio for overall accesses (Ratio)
system.cpu.icache.demandAvgMshrMissLatency::cpu.inst 39013.544018                       # average overall mshr miss latency ((Tick/Count))
system.cpu.icache.demandAvgMshrMissLatency::total 39013.544018                       # average overall mshr miss latency ((Tick/Count))
system.cpu.icache.overallAvgMshrMissLatency::cpu.inst 39013.544018                       # average overall mshr miss latency ((Tick/Count))
system.cpu.icache.overallAvgMshrMissLatency::total 39013.544018                       # average overall mshr miss latency ((Tick/Count))
system.cpu.icache.replacements                     15                       # number of replacements (Count)
system.cpu.icache.ReadReq.hits::cpu.inst    238164434                       # number of ReadReq hits (Count)
system.cpu.icache.ReadReq.hits::total       238164434                       # number of ReadReq hits (Count)
system.cpu.icache.ReadReq.misses::cpu.inst          443                       # number of ReadReq misses (Count)
system.cpu.icache.ReadReq.misses::total           443                       # number of ReadReq misses (Count)
system.cpu.icache.ReadReq.missLatency::cpu.inst     17726000                       # number of ReadReq miss ticks (Tick)
system.cpu.icache.ReadReq.missLatency::total     17726000                       # number of ReadReq miss ticks (Tick)
system.cpu.icache.ReadReq.accesses::cpu.inst    238164877                       # number of ReadReq accesses(hits+misses) (Count)
system.cpu.icache.ReadReq.accesses::total    238164877                       # number of ReadReq accesses(hits+misses) (Count)
system.cpu.icache.ReadReq.missRate::cpu.inst     0.000002                       # miss rate for ReadReq accesses (Ratio)
system.cpu.icache.ReadReq.missRate::total     0.000002                       # miss rate for ReadReq accesses (Ratio)
system.cpu.icache.ReadReq.avgMissLatency::cpu.inst 40013.544018                       # average ReadReq miss latency ((Tick/Count))
system.cpu.icache.ReadReq.avgMissLatency::total 40013.544018                       # average ReadReq miss latency ((Tick/Count))
system.cpu.icache.ReadReq.mshrMisses::cpu.inst          443                       # number of ReadReq MSHR misses (Count)
system.cpu.icache.ReadReq.mshrMisses::total          443                       # number of ReadReq MSHR misses (Count)
system.cpu.icache.ReadReq.mshrMissLatency::cpu.inst     17283000                       # number of ReadReq MSHR miss ticks (Tick)
system.cpu.icache.ReadReq.mshrMissLatency::total     17283000                       # number of ReadReq MSHR miss ticks (Tick)
system.cpu.icache.ReadReq.mshrMissRate::cpu.inst     0.000002                       # mshr miss rate for ReadReq accesses (Ratio)
system.cpu.icache.ReadReq.mshrMissRate::total     0.000002                       # mshr miss rate for ReadReq accesses (Ratio)
system.cpu.icache.ReadReq.avgMshrMissLatency::cpu.inst 39013.544018                       # average ReadReq mshr miss latency ((Tick/Count))
system.cpu.icache.ReadReq.avgMshrMissLatency::total 39013.544018                       # average ReadReq mshr miss latency ((Tick/Count))
system.cpu.icache.power_state.pwrStateResidencyTicks::UNDEFINED 3219403995000                       # Cumulative time (in ticks) in various power states (Tick)
system.cpu.icache.tags.tagsInUse           339.975669                       # Average ticks per tags in use ((Tick/Count))
system.cpu.icache.tags.totalRefs            238164877                       # Total number of references to valid blocks. (Count)
system.cpu.icache.tags.sampledRefs                443                       # Sample count of references to valid blocks. (Count)
system.cpu.icache.tags.avgRefs           537618.232506                       # Average number of references to valid blocks. ((Count/Count))
system.cpu.icache.tags.warmupTick              159000                       # The tick when the warmup percentage was hit. (Tick)
system.cpu.icache.tags.occupancies::cpu.inst   339.975669                       # Average occupied blocks per tick, per requestor ((Count/Tick))
system.cpu.icache.tags.avgOccs::cpu.inst     0.664015                       # Average percentage of cache occupancy ((Ratio/Tick))
system.cpu.icache.tags.avgOccs::total        0.664015                       # Average percentage of cache occupancy ((Ratio/Tick))
system.cpu.icache.tags.occupanciesTaskId::1024          428                       # Occupied blocks per task id (Count)
system.cpu.icache.tags.ageTaskId_1024::0           29                       # Occupied blocks per task id, per block age (Count)
system.cpu.icache.tags.ageTaskId_1024::1           19                       # Occupied blocks per task id, per block age (Count)
system.cpu.icache.tags.ageTaskId_1024::4          380                       # Occupied blocks per task id, per block age (Count)
system.cpu.icache.tags.ratioOccsTaskId::1024     0.835938                       # Ratio of occupied blocks and all blocks, per task id (Ratio)
system.cpu.icache.tags.tagAccesses         1905319459                       # Number of tag accesses (Count)
system.cpu.icache.tags.dataAccesses        1905319459                       # Number of data accesses (Count)
system.cpu.icache.tags.power_state.pwrStateResidencyTicks::UNDEFINED 3219403995000                       # Cumulative time (in ticks) in various power states (Tick)
system.cpu.mmu.dtb.readHits                         0                       # read hits (Count)
system.cpu.mmu.dtb.readMisses                       0                       # read misses (Count)
system.cpu.mmu.dtb.readAccesses                     0                       # read accesses (Count)
system.cpu.mmu.dtb.writeHits                        0                       # write hits (Count)
system.cpu.mmu.dtb.writeMisses                      0                       # write misses (Count)
system.cpu.mmu.dtb.writeAccesses                    0                       # write accesses (Count)
system.cpu.mmu.dtb.hits                             0                       # Total TLB (read and write) hits (Count)
system.cpu.mmu.dtb.misses                           0                       # Total TLB (read and write) misses (Count)
system.cpu.mmu.dtb.accesses                         0                       # Total TLB (read and write) accesses (Count)
system.cpu.mmu.dtb.walker.num_4kb_walks             0                       # Completed page walks with 4KB pages (Count)
system.cpu.mmu.dtb.walker.num_64kb_walks            0                       # Completed page walks with 64KB pages (Count)
system.cpu.mmu.dtb.walker.num_2mb_walks             0                       # Completed page walks with 2MB pages (Count)
system.cpu.mmu.dtb.walker.power_state.pwrStateResidencyTicks::UNDEFINED 3219403995000                       # Cumulative time (in ticks) in various power states (Tick)
system.cpu.mmu.itb.readHits                         0                       # read hits (Count)
system.cpu.mmu.itb.readMisses                       0                       # read misses (Count)
system.cpu.mmu.itb.readAccesses                     0                       # read accesses (Count)
system.cpu.mmu.itb.writeHits                        0                       # write hits (Count)
system.cpu.mmu.itb.writeMisses                      0                       # write misses (Count)
system.cpu.mmu.itb.writeAccesses                    0                       # write accesses (Count)
system.cpu.mmu.itb.hits                             0                       # Total TLB (read and write) hits (Count)
system.cpu.mmu.itb.misses                           0                       # Total TLB (read and write) misses (Count)
system.cpu.mmu.itb.accesses                         0                       # Total TLB (read and write) accesses (Count)
system.cpu.mmu.itb.walker.num_4kb_walks             0                       # Completed page walks with 4KB pages (Count)
system.cpu.mmu.itb.walker.num_64kb_walks            0                       # Completed page walks with 64KB pages (Count)
system.cpu.mmu.itb.walker.num_2mb_walks             0                       # Completed page walks with 2MB pages (Count)
system.cpu.mmu.itb.walker.power_state.pwrStateResidencyTicks::UNDEFINED 3219403995000                       # Cumulative time (in ticks) in various power states (Tick)
system.cpu.power_state.pwrStateResidencyTicks::ON 3219403995000                       # Cumulative time (in ticks) in various power states (Tick)
system.cpu.thread_0.numInsts               1272112945                       # Number of Instructions committed (Count)
system.cpu.thread_0.numOps                 1272112945                       # Number of Ops committed (Count)
system.cpu.thread_0.numMemRefs                      0                       # Number of Memory References (Count)
system.cpu.workload.numSyscalls                   382                       # Number of system calls (Count)
system.l2bus.transDist::ReadResp             64000594                       # Transaction distribution (Count)
system.l2bus.transDist::WritebackDirty      149999038                       # Transaction distribution (Count)
system.l2bus.transDist::CleanEvict          410258873                       # Transaction distribution (Count)
system.l2bus.transDist::HardPFReq           223105837                       # Transaction distribution (Count)
system.l2bus.transDist::ReadExReq            49000160                       # Transaction distribution (Count)
system.l2bus.transDist::ReadExResp           49000160                       # Transaction distribution (Count)
system.l2bus.transDist::ReadCleanReq              443                       # Transaction distribution (Count)
system.l2bus.transDist::ReadSharedReq        64000151                       # Transaction distribution (Count)
system.l2bus.pktCount_system.cpu.icache.mem_side_port::system.l2cache.cpu_side_port          901                       # Packet count per connected requestor and responder (Count)
system.l2bus.pktCount_system.cpu.dcache.mem_side_port::system.l2cache.cpu_side_port    338999909                       # Packet count per connected requestor and responder (Count)
system.l2bus.pktCount::total                339000810                       # Packet count per connected requestor and responder (Count)
system.l2bus.pktSize_system.cpu.icache.mem_side_port::system.l2cache.cpu_side_port        28352                       # Cumulative packet size per connected requestor and responder (Byte)
system.l2bus.pktSize_system.cpu.dcache.mem_side_port::system.l2cache.cpu_side_port  10432002624                       # Cumulative packet size per connected requestor and responder (Byte)
system.l2bus.pktSize::total               10432030976                       # Cumulative packet size per connected requestor and responder (Byte)
system.l2bus.snoops                         670364446                       # Total snoops (Count)
system.l2bus.snoopTraffic                  6399955712                       # Total snoop traffic (Byte)
system.l2bus.snoopFanout::samples           783365200                       # Request fanout histogram (Count)
system.l2bus.snoopFanout::mean               0.000072                       # Request fanout histogram (Count)
system.l2bus.snoopFanout::stdev              0.008484                       # Request fanout histogram (Count)
system.l2bus.snoopFanout::underflows                0      0.00%      0.00% # Request fanout histogram (Count)
system.l2bus.snoopFanout::0                 783308819     99.99%     99.99% # Request fanout histogram (Count)
system.l2bus.snoopFanout::1                     56379      0.01%    100.00% # Request fanout histogram (Count)
system.l2bus.snoopFanout::2                         2      0.00%    100.00% # Request fanout histogram (Count)
system.l2bus.snoopFanout::overflows                 0      0.00%    100.00% # Request fanout histogram (Count)
system.l2bus.snoopFanout::min_value                 0                       # Request fanout histogram (Count)
system.l2bus.snoopFanout::max_value                 2                       # Request fanout histogram (Count)
system.l2bus.snoopFanout::total             783365200                       # Request fanout histogram (Count)
system.l2bus.power_state.pwrStateResidencyTicks::UNDEFINED 3219403995000                       # Cumulative time (in ticks) in various power states (Tick)
system.l2bus.reqLayer0.occupancy         325999516000                       # Layer occupancy (ticks) (Tick)
system.l2bus.reqLayer0.utilization                0.1                       # Layer utilization (Ratio)
system.l2bus.respLayer0.occupancy             1329000                       # Layer occupancy (ticks) (Tick)
system.l2bus.respLayer0.utilization               0.0                       # Layer utilization (Ratio)
system.l2bus.respLayer1.occupancy        339000933000                       # Layer occupancy (ticks) (Tick)
system.l2bus.respLayer1.utilization               0.1                       # Layer utilization (Ratio)
system.l2bus.snoop_filter.totRequests       226000056                       # Total number of requests made to the snoop filter. (Count)
system.l2bus.snoop_filter.hitSingleRequests    112999304                       # Number of requests hitting in the snoop filter with a single holder of the requested data. (Count)
system.l2bus.snoop_filter.hitMultiRequests            4                       # Number of requests hitting in the snoop filter with multiple (>1) holders of the requested data. (Count)
system.l2bus.snoop_filter.totSnoops             56375                       # Total number of snoops made to the snoop filter. (Count)
system.l2bus.snoop_filter.hitSingleSnoops        56373                       # Number of snoops hitting in the snoop filter with a single holder of the requested data. (Count)
system.l2bus.snoop_filter.hitMultiSnoops            2                       # Number of snoops hitting in the snoop filter with multiple (>1) holders of the requested data. (Count)
system.l2cache.demandHits::cpu.inst               354                       # number of demand (read+write) hits (Count)
system.l2cache.demandHits::cpu.data          91992727                       # number of demand (read+write) hits (Count)
system.l2cache.demandHits::total             91993081                       # number of demand (read+write) hits (Count)
system.l2cache.overallHits::cpu.inst              354                       # number of overall hits (Count)
system.l2cache.overallHits::cpu.data         91992727                       # number of overall hits (Count)
system.l2cache.overallHits::total            91993081                       # number of overall hits (Count)
system.l2cache.demandMisses::cpu.inst              89                       # number of demand (read+write) misses (Count)
system.l2cache.demandMisses::cpu.data        21007584                       # number of demand (read+write) misses (Count)
system.l2cache.demandMisses::total           21007673                       # number of demand (read+write) misses (Count)
system.l2cache.overallMisses::cpu.inst             89                       # number of overall misses (Count)
system.l2cache.overallMisses::cpu.data       21007584                       # number of overall misses (Count)
system.l2cache.overallMisses::total          21007673                       # number of overall misses (Count)
system.l2cache.demandMissLatency::cpu.inst     12938000                       # number of demand (read+write) miss ticks (Tick)
system.l2cache.demandMissLatency::cpu.data 1247101676000                       # number of demand (read+write) miss ticks (Tick)
system.l2cache.demandMissLatency::total  1247114614000                       # number of demand (read+write) miss ticks (Tick)
system.l2cache.overallMissLatency::cpu.inst     12938000                       # number of overall miss ticks (Tick)
system.l2cache.overallMissLatency::cpu.data 1247101676000                       # number of overall miss ticks (Tick)
system.l2cache.overallMissLatency::total 1247114614000                       # number of overall miss ticks (Tick)
system.l2cache.demandAccesses::cpu.inst           443                       # number of demand (read+write) accesses (Count)
system.l2cache.demandAccesses::cpu.data     113000311                       # number of demand (read+write) accesses (Count)
system.l2cache.demandAccesses::total        113000754                       # number of demand (read+write) accesses (Count)
system.l2cache.overallAccesses::cpu.inst          443                       # number of overall (read+write) accesses (Count)
system.l2cache.overallAccesses::cpu.data    113000311                       # number of overall (read+write) accesses (Count)
system.l2cache.overallAccesses::total       113000754                       # number of overall (read+write) accesses (Count)
system.l2cache.demandMissRate::cpu.inst      0.200903                       # miss rate for demand accesses (Ratio)
system.l2cache.demandMissRate::cpu.data      0.185907                       # miss rate for demand accesses (Ratio)
system.l2cache.demandMissRate::total         0.185907                       # miss rate for demand accesses (Ratio)
system.l2cache.overallMissRate::cpu.inst     0.200903                       # miss rate for overall accesses (Ratio)
system.l2cache.overallMissRate::cpu.data     0.185907                       # miss rate for overall accesses (Ratio)
system.l2cache.overallMissRate::total        0.185907                       # miss rate for overall accesses (Ratio)
system.l2cache.demandAvgMissLatency::cpu.inst 145370.786517                       # average overall miss latency in ticks ((Tick/Count))
system.l2cache.demandAvgMissLatency::cpu.data 59364.355082                       # average overall miss latency in ticks ((Tick/Count))
system.l2cache.demandAvgMissLatency::total 59364.719453                       # average overall miss latency in ticks ((Tick/Count))
system.l2cache.overallAvgMissLatency::cpu.inst 145370.786517                       # average overall miss latency ((Tick/Count))
system.l2cache.overallAvgMissLatency::cpu.data 59364.355082                       # average overall miss latency ((Tick/Count))
system.l2cache.overallAvgMissLatency::total 59364.719453                       # average overall miss latency ((Tick/Count))
system.l2cache.blockedCycles::no_mshrs              0                       # number of cycles access was blocked (Cycle)
system.l2cache.blockedCycles::no_targets            0                       # number of cycles access was blocked (Cycle)
system.l2cache.blockedCauses::no_mshrs              0                       # number of times access was blocked (Count)
system.l2cache.blockedCauses::no_targets            0                       # number of times access was blocked (Count)
system.l2cache.avgBlocked::no_mshrs               nan                       # average number of cycles each access was blocked ((Cycle/Count))
system.l2cache.avgBlocked::no_targets             nan                       # average number of cycles each access was blocked ((Cycle/Count))
system.l2cache.writebacks::writebacks        49999686                       # number of writebacks (Count)
system.l2cache.writebacks::total             49999686                       # number of writebacks (Count)
system.l2cache.demandMshrHits::cpu.inst            11                       # number of demand (read+write) MSHR hits (Count)
system.l2cache.demandMshrHits::cpu.data      17569891                       # number of demand (read+write) MSHR hits (Count)
system.l2cache.demandMshrHits::total         17569902                       # number of demand (read+write) MSHR hits (Count)
system.l2cache.overallMshrHits::cpu.inst           11                       # number of overall MSHR hits (Count)
[...]
system.mem_ctrl.dram.bwTotal::l2cache.prefetcher   4238327150                       # Total bandwidth to/from this memory ((Byte/Second))
system.mem_ctrl.dram.bwTotal::total        5300633452                       # Total bandwidth to/from this memory ((Byte/Second))
system.mem_ctrl.dram.readBursts             216639119                       # Number of DRAM read bursts (Count)
system.mem_ctrl.dram.writeBursts             49999603                       # Number of DRAM write bursts (Count)
system.mem_ctrl.dram.perBankRdBursts::0      13540397                       # Per bank write bursts (Count)
system.mem_ctrl.dram.perBankRdBursts::1      13538982                       # Per bank write bursts (Count)
system.mem_ctrl.dram.perBankRdBursts::2      13537857                       # Per bank write bursts (Count)
system.mem_ctrl.dram.perBankRdBursts::3      13537488                       # Per bank write bursts (Count)
system.mem_ctrl.dram.perBankRdBursts::4      13537401                       # Per bank write bursts (Count)
system.mem_ctrl.dram.perBankRdBursts::5      13537514                       # Per bank write bursts (Count)
system.mem_ctrl.dram.perBankRdBursts::6      13539754                       # Per bank write bursts (Count)
system.mem_ctrl.dram.perBankRdBursts::7      13541662                       # Per bank write bursts (Count)
system.mem_ctrl.dram.perBankRdBursts::8      13542328                       # Per bank write bursts (Count)
system.mem_ctrl.dram.perBankRdBursts::9      13542876                       # Per bank write bursts (Count)
system.mem_ctrl.dram.perBankRdBursts::10     13541316                       # Per bank write bursts (Count)
system.mem_ctrl.dram.perBankRdBursts::11     13540318                       # Per bank write bursts (Count)
system.mem_ctrl.dram.perBankRdBursts::12     13540318                       # Per bank write bursts (Count)
system.mem_ctrl.dram.perBankRdBursts::13     13540318                       # Per bank write bursts (Count)
system.mem_ctrl.dram.perBankRdBursts::14     13540318                       # Per bank write bursts (Count)
system.mem_ctrl.dram.perBankRdBursts::15     13540272                       # Per bank write bursts (Count)
system.mem_ctrl.dram.perBankWrBursts::0       3125434                       # Per bank write bursts (Count)
system.mem_ctrl.dram.perBankWrBursts::1       3124702                       # Per bank write bursts (Count)
system.mem_ctrl.dram.perBankWrBursts::2       3124145                       # Per bank write bursts (Count)
system.mem_ctrl.dram.perBankWrBursts::3       3124025                       # Per bank write bursts (Count)
system.mem_ctrl.dram.perBankWrBursts::4       3124025                       # Per bank write bursts (Count)
system.mem_ctrl.dram.perBankWrBursts::5       3124026                       # Per bank write bursts (Count)
system.mem_ctrl.dram.perBankWrBursts::6       3124544                       # Per bank write bursts (Count)
system.mem_ctrl.dram.perBankWrBursts::7       3124920                       # Per bank write bursts (Count)
system.mem_ctrl.dram.perBankWrBursts::8       3125260                       # Per bank write bursts (Count)
system.mem_ctrl.dram.perBankWrBursts::9       3125559                       # Per bank write bursts (Count)
system.mem_ctrl.dram.perBankWrBursts::10      3125523                       # Per bank write bursts (Count)
system.mem_ctrl.dram.perBankWrBursts::11      3125498                       # Per bank write bursts (Count)
system.mem_ctrl.dram.perBankWrBursts::12      3125498                       # Per bank write bursts (Count)
system.mem_ctrl.dram.perBankWrBursts::13      3125498                       # Per bank write bursts (Count)
system.mem_ctrl.dram.perBankWrBursts::14      3125498                       # Per bank write bursts (Count)
system.mem_ctrl.dram.perBankWrBursts::15      3125448                       # Per bank write bursts (Count)
system.mem_ctrl.dram.totQLat             6598568847611                       # Total ticks spent queuing (Tick)
system.mem_ctrl.dram.totBusLat           1083195595000                       # Total ticks spent in databus transfers (Tick)
system.mem_ctrl.dram.totMemAccLat        10660552328861                       # Total ticks spent from burst creation until serviced by the DRAM (Tick)
system.mem_ctrl.dram.avgQLat                 30458.81                       # Average queueing delay per DRAM burst ((Tick/Count))
system.mem_ctrl.dram.avgBusLat                5000.00                       # Average bus latency per DRAM burst ((Tick/Count))
system.mem_ctrl.dram.avgMemAccLat            49208.81                       # Average memory access latency per DRAM burst ((Tick/Count))
system.mem_ctrl.dram.readRowHits            201622222                       # Number of row buffer hits during reads (Count)
system.mem_ctrl.dram.writeRowHits            46021280                       # Number of row buffer hits during writes (Count)
system.mem_ctrl.dram.readRowHitRate             93.07                       # Row buffer hit rate for reads (Ratio)
system.mem_ctrl.dram.writeRowHitRate            92.04                       # Row buffer hit rate for writes (Ratio)
system.mem_ctrl.dram.bytesPerActivate::samples     18995215                       # Bytes accessed per row activation (Byte)
system.mem_ctrl.dram.bytesPerActivate::mean   898.377660                       # Bytes accessed per row activation (Byte)
system.mem_ctrl.dram.bytesPerActivate::gmean   826.522892                       # Bytes accessed per row activation (Byte)
system.mem_ctrl.dram.bytesPerActivate::stdev   251.126493                       # Bytes accessed per row activation (Byte)
system.mem_ctrl.dram.bytesPerActivate::0-127       261351      1.38%      1.38% # Bytes accessed per row activation (Byte)
system.mem_ctrl.dram.bytesPerActivate::128-255       452179      2.38%      3.76% # Bytes accessed per row activation (Byte)
system.mem_ctrl.dram.bytesPerActivate::256-383       650781      3.43%      7.18% # Bytes accessed per row activation (Byte)
system.mem_ctrl.dram.bytesPerActivate::384-511       750181      3.95%     11.13% # Bytes accessed per row activation (Byte)
system.mem_ctrl.dram.bytesPerActivate::512-639       802825      4.23%     15.36% # Bytes accessed per row activation (Byte)
system.mem_ctrl.dram.bytesPerActivate::640-767       547076      2.88%     18.24% # Bytes accessed per row activation (Byte)
system.mem_ctrl.dram.bytesPerActivate::768-895       498115      2.62%     20.86% # Bytes accessed per row activation (Byte)
system.mem_ctrl.dram.bytesPerActivate::896-1023      1226597      6.46%     27.32% # Bytes accessed per row activation (Byte)
system.mem_ctrl.dram.bytesPerActivate::1024-1151     13806110     72.68%    100.00% # Bytes accessed per row activation (Byte)
system.mem_ctrl.dram.bytesPerActivate::total     18995215                       # Bytes accessed per row activation (Byte)
system.mem_ctrl.dram.dramBytesRead        13864903616                       # Total bytes read (Byte)
system.mem_ctrl.dram.dramBytesWritten      3199974592                       # Total bytes written (Byte)
system.mem_ctrl.dram.avgRdBW              4306.667830                       # Average DRAM read bandwidth in MiBytes/s ((Byte/Second))
system.mem_ctrl.dram.avgWrBW               993.964907                       # Average DRAM write bandwidth in MiBytes/s ((Byte/Second))
system.mem_ctrl.dram.peakBW                  12800.00                       # Theoretical peak bandwidth in MiByte/s ((Byte/Second))
system.mem_ctrl.dram.busUtil                    41.41                       # Data bus utilization in percentage (Ratio)
system.mem_ctrl.dram.busUtilRead                33.65                       # Data bus utilization in percentage for reads (Ratio)
system.mem_ctrl.dram.busUtilWrite                7.77                       # Data bus utilization in percentage for writes (Ratio)
system.mem_ctrl.dram.pageHitRate                92.88                       # Row buffer hit rate, read and write combined (Ratio)
system.mem_ctrl.dram.power_state.pwrStateResidencyTicks::UNDEFINED 3219403995000                       # Cumulative time (in ticks) in various power states (Tick)
system.mem_ctrl.dram.rank0.actEnergy      67798555440                       # Energy for activate commands per rank (pJ) (Joule)
system.mem_ctrl.dram.rank0.preEnergy      36035767845                       # Energy for precharge commands per rank (pJ) (Joule)
system.mem_ctrl.dram.rank0.readEnergy    773340932700                       # Energy for read commands per rank (pJ) (Joule)
system.mem_ctrl.dram.rank0.writeEnergy   130478185620                       # Energy for write commands per rank (pJ) (Joule)
system.mem_ctrl.dram.rank0.refreshEnergy 254136430080.000031                       # Energy for refresh commands per rank (pJ) (Joule)
system.mem_ctrl.dram.rank0.actBackEnergy 1311489846600                       # Energy for active background per rank (pJ) (Joule)
system.mem_ctrl.dram.rank0.preBackEnergy 131838631680                       # Energy for precharge background per rank (pJ) (Joule)
system.mem_ctrl.dram.rank0.actPowerDownEnergy            0                       # Energy for active power-down per rank (pJ) (Joule)
system.mem_ctrl.dram.rank0.prePowerDownEnergy            0                       # Energy for precharge power-down per rank (pJ) (Joule)
system.mem_ctrl.dram.rank0.selfRefreshEnergy            0                       # Energy for self refresh per rank (pJ) (Joule)
system.mem_ctrl.dram.rank0.totalEnergy   2705118349965                       # Total energy per rank (pJ) (Joule)
system.mem_ctrl.dram.rank0.averagePower    840.254393                       # Core power per rank (mW) (Watt)
system.mem_ctrl.dram.rank0.totalIdleTime            0                       # Total Idle time Per DRAM Rank (Tick)
system.mem_ctrl.dram.rank0.pwrStateTime::IDLE 318128483423                       # Time in different power states (Tick)
system.mem_ctrl.dram.rank0.pwrStateTime::REF 107502720000                       # Time in different power states (Tick)
system.mem_ctrl.dram.rank0.pwrStateTime::SREF            0                       # Time in different power states (Tick)
system.mem_ctrl.dram.rank0.pwrStateTime::PRE_PDN            0                       # Time in different power states (Tick)
system.mem_ctrl.dram.rank0.pwrStateTime::ACT 2793772791577                       # Time in different power states (Tick)
system.mem_ctrl.dram.rank0.pwrStateTime::ACT_PDN            0                       # Time in different power states (Tick)
system.mem_ctrl.dram.rank1.actEnergy      67827315360                       # Energy for activate commands per rank (pJ) (Joule)
system.mem_ctrl.dram.rank1.preEnergy      36051073080                       # Energy for precharge commands per rank (pJ) (Joule)
system.mem_ctrl.dram.rank1.readEnergy    773462376960                       # Energy for read commands per rank (pJ) (Joule)
system.mem_ctrl.dram.rank1.writeEnergy   130519742040                       # Energy for write commands per rank (pJ) (Joule)
system.mem_ctrl.dram.rank1.refreshEnergy 254136430080.000031                       # Energy for refresh commands per rank (pJ) (Joule)
system.mem_ctrl.dram.rank1.actBackEnergy 1311965027100                       # Energy for active background per rank (pJ) (Joule)
system.mem_ctrl.dram.rank1.preBackEnergy 131438479680                       # Energy for precharge background per rank (pJ) (Joule)
system.mem_ctrl.dram.rank1.actPowerDownEnergy            0                       # Energy for active power-down per rank (pJ) (Joule)
system.mem_ctrl.dram.rank1.prePowerDownEnergy            0                       # Energy for precharge power-down per rank (pJ) (Joule)
system.mem_ctrl.dram.rank1.selfRefreshEnergy            0                       # Energy for self refresh per rank (pJ) (Joule)
system.mem_ctrl.dram.rank1.totalEnergy   2705400444300                       # Total energy per rank (pJ) (Joule)
system.mem_ctrl.dram.rank1.averagePower    840.342016                       # Core power per rank (mW) (Watt)
system.mem_ctrl.dram.rank1.totalIdleTime            0                       # Total Idle time Per DRAM Rank (Tick)
system.mem_ctrl.dram.rank1.pwrStateTime::IDLE 317043726751                       # Time in different power states (Tick)
system.mem_ctrl.dram.rank1.pwrStateTime::REF 107502720000                       # Time in different power states (Tick)
system.mem_ctrl.dram.rank1.pwrStateTime::SREF            0                       # Time in different power states (Tick)
system.mem_ctrl.dram.rank1.pwrStateTime::PRE_PDN            0                       # Time in different power states (Tick)
system.mem_ctrl.dram.rank1.pwrStateTime::ACT 2794857548249                       # Time in different power states (Tick)
system.mem_ctrl.dram.rank1.pwrStateTime::ACT_PDN            0                       # Time in different power states (Tick)
system.mem_ctrl.power_state.pwrStateResidencyTicks::UNDEFINED 3219403995000                       # Cumulative time (in ticks) in various power states (Tick)
system.membus.transDist::ReadResp           215201544                       # Transaction distribution (Count)
system.membus.transDist::WritebackDirty      49999622                       # Transaction distribution (Count)
system.membus.transDist::CleanEvict         166630447                       # Transaction distribution (Count)
system.membus.transDist::ReadExReq            1437592                       # Transaction distribution (Count)
system.membus.transDist::ReadExResp           1437592                       # Transaction distribution (Count)
system.membus.transDist::ReadSharedReq      215201544                       # Transaction distribution (Count)
system.membus.pktCount_system.l3cache0.mem_side_port::system.mem_ctrl.port    154940086                       # Packet count per connected requestor and responder (Count)
system.membus.pktCount_system.l3cache1.mem_side_port::system.mem_ctrl.port    164999236                       # Packet count per connected requestor and responder (Count)
system.membus.pktCount_system.l3cache2.mem_side_port::system.mem_ctrl.port    164969796                       # Packet count per connected requestor and responder (Count)
system.membus.pktCount_system.l3cache3.mem_side_port::system.mem_ctrl.port    164999223                       # Packet count per connected requestor and responder (Count)
system.membus.pktCount::total               649908341                       # Packet count per connected requestor and responder (Count)
system.membus.pktSize_system.l3cache0.mem_side_port::system.mem_ctrl.port   3401417920                       # Cumulative packet size per connected requestor and responder (Byte)
system.membus.pktSize_system.l3cache1.mem_side_port::system.mem_ctrl.port   5024035456                       # Cumulative packet size per connected requestor and responder (Byte)
system.membus.pktSize_system.l3cache2.mem_side_port::system.mem_ctrl.port   3615392384                       # Cumulative packet size per connected requestor and responder (Byte)
system.membus.pktSize_system.l3cache3.mem_side_port::system.mem_ctrl.port   5024034752                       # Cumulative packet size per connected requestor and responder (Byte)
system.membus.pktSize::total              17064880512                       # Cumulative packet size per connected requestor and responder (Byte)
system.membus.snoops                                0                       # Total snoops (Count)
system.membus.snoopTraffic                          0                       # Total snoop traffic (Byte)
system.membus.snoopFanout::samples          216639136                       # Request fanout histogram (Count)
system.membus.snoopFanout::mean                     0                       # Request fanout histogram (Count)
system.membus.snoopFanout::stdev                    0                       # Request fanout histogram (Count)
system.membus.snoopFanout::underflows               0      0.00%      0.00% # Request fanout histogram (Count)
system.membus.snoopFanout::0                216639136    100.00%    100.00% # Request fanout histogram (Count)
system.membus.snoopFanout::1                        0      0.00%    100.00% # Request fanout histogram (Count)
system.membus.snoopFanout::2                        0      0.00%    100.00% # Request fanout histogram (Count)
system.membus.snoopFanout::3                        0      0.00%    100.00% # Request fanout histogram (Count)
system.membus.snoopFanout::4                        0      0.00%    100.00% # Request fanout histogram (Count)
system.membus.snoopFanout::overflows                0      0.00%    100.00% # Request fanout histogram (Count)
system.membus.snoopFanout::min_value                0                       # Request fanout histogram (Count)
system.membus.snoopFanout::max_value                0                       # Request fanout histogram (Count)
system.membus.snoopFanout::total            216639136                       # Request fanout histogram (Count)
system.membus.power_state.pwrStateResidencyTicks::UNDEFINED 3219403995000                       # Cumulative time (in ticks) in various power states (Tick)
system.membus.reqLayer0.occupancy        633717423775                       # Layer occupancy (ticks) (Tick)
system.membus.reqLayer0.utilization               0.2                       # Layer utilization (Ratio)
system.membus.respLayer0.occupancy       275238963954                       # Layer occupancy (ticks) (Tick)
system.membus.respLayer0.utilization              0.1                       # Layer utilization (Ratio)
system.membus.respLayer1.occupancy       294749179971                       # Layer occupancy (ticks) (Tick)
system.membus.respLayer1.utilization              0.1                       # Layer utilization (Ratio)
system.membus.respLayer2.occupancy       291936242894                       # Layer occupancy (ticks) (Tick)
system.membus.respLayer2.utilization              0.1                       # Layer utilization (Ratio)
system.membus.respLayer3.occupancy       293997118608                       # Layer occupancy (ticks) (Tick)
system.membus.respLayer3.utilization              0.1                       # Layer utilization (Ratio)
system.membus.snoop_filter.totRequests      433269205                       # Total number of requests made to the snoop filter. (Count)
system.membus.snoop_filter.hitSingleRequests    216630074                       # Number of requests hitting in the snoop filter with a single holder of the requested data. (Count)
system.membus.snoop_filter.hitMultiRequests            0                       # Number of requests hitting in the snoop filter with multiple (>1) holders of the requested data. (Count)
system.membus.snoop_filter.totSnoops                0                       # Total number of snoops made to the snoop filter. (Count)
system.membus.snoop_filter.hitSingleSnoops            0                       # Number of snoops hitting in the snoop filter with a single holder of the requested data. (Count)
system.membus.snoop_filter.hitMultiSnoops            0                       # Number of snoops hitting in the snoop filter with multiple (>1) holders of the requested data. (Count)
system.workload.inst.arm                            0                       # number of arm instructions executed (Count)
system.workload.inst.quiesce                        0                       # number of quiesce instructions executed (Count)
system.cpu.idleCycles                      1207001893                       # Total number of cycles that the object has spent stopped (Unspecified)
system.cpu.tickCycles                      2012402102                       # Number of cycles that the object actually ticked (Unspecified)

---------- End Simulation Statistics   ----------
