
---------- Begin Simulation Statistics ----------
simSeconds                                   3.303993                       # Number of seconds simulated (Second)
simTicks                                 3303993264000                       # Number of ticks simulated (Tick)
finalTick                                3303993264000                       # Number of ticks from beginning of simulation (restored from checkpoints and never reset) (Tick)
simFreq                                  1000000000000                       # The number of ticks per simulated second ((Tick/Second))
hostSeconds                                   1844.97                       # Real time elapsed on the host (Second)
hostTickRate                               1790806729                       # The number of ticks simulated per host second (ticks/s) ((Tick/Second))
hostMemory                                  405351904                       # Number of bytes of host memory used (Byte)
simInsts                                   1071113389                       # Number of instructions simulated (Count)
simOps                                     1071113389                       # Number of ops (including micro ops) simulated (Count)
hostInstRate                                   580557                       # Simulator instruction rate (inst/s) ((Count/Second))
hostOpRate                                     580557                       # Simulator op (including micro ops) rate (op/s) ((Count/Second))
system.clk_domain.clock                          1000                       # Clock period in ticks (Tick)
system.clk_domain.voltage_domain.voltage            1                       # Voltage in Volts (Volt)
system.cpu.numCycles                       3303993264                       # Number of cpu cycles simulated (Cycle)
system.cpu.cpi                               3.084634                       # CPI: cycles per instruction (core level) ((Cycle/Count))
system.cpu.ipc                               0.324188                       # IPC: instructions per cycle (core level) ((Count/Cycle))
system.cpu.numWorkItemsStarted                      0                       # Number of work items this cpu started (Count)
system.cpu.numWorkItemsCompleted                    0                       # Number of work items this cpu completed (Count)
system.cpu.branchPred.lookups_0::NoBranch          390      0.00%      0.00% # Number of BP lookups (Count)
system.cpu.branchPred.lookups_0::Return          3724      0.01%      0.01% # Number of BP lookups (Count)
system.cpu.branchPred.lookups_0::CallDirect         3252      0.01%      0.01% # Number of BP lookups (Count)
system.cpu.branchPred.lookups_0::CallIndirect           75      0.00%      0.01% # Number of BP lookups (Count)
system.cpu.branchPred.lookups_0::DirectCond     47518820     94.04%     94.06% # Number of BP lookups (Count)
system.cpu.branchPred.lookups_0::DirectUncond      3002848      5.94%    100.00% # Number of BP lookups (Count)
system.cpu.branchPred.lookups_0::IndirectCond            0      0.00%    100.00% # Number of BP lookups (Count)
system.cpu.branchPred.lookups_0::IndirectUncond           75      0.00%    100.00% # Number of BP lookups (Count)
system.cpu.branchPred.lookups_0::total       50529184                       # Number of BP lookups (Count)
system.cpu.branchPred.squashes_0::NoBranch            3      0.05%      0.05% # Number of branches that got squashed (completely removed) as an earlier branch was mispredicted. (Count)
system.cpu.branchPred.squashes_0::Return          976     16.19%     16.24% # Number of branches that got squashed (completely removed) as an earlier branch was mispredicted. (Count)
system.cpu.branchPred.squashes_0::CallDirect          546      9.05%     25.29% # Number of branches that got squashed (completely removed) as an earlier branch was mispredicted. (Count)
system.cpu.branchPred.squashes_0::CallIndirect           33      0.55%     25.84% # Number of branches that got squashed (completely removed) as an earlier branch was mispredicted. (Count)
system.cpu.branchPred.squashes_0::DirectCond         3719     61.67%     87.51% # Number of branches that got squashed (completely removed) as an earlier branch was mispredicted. (Count)
system.cpu.branchPred.squashes_0::DirectUncond          751     12.45%     99.97% # Number of branches that got squashed (completely removed) as an earlier branch was mispredicted. (Count)
system.cpu.branchPred.squashes_0::IndirectCond            0      0.00%     99.97% # Number of branches that got squashed (completely removed) as an earlier branch was mispredicted. (Count)
system.cpu.branchPred.squashes_0::IndirectUncond            2      0.03%    100.00% # Number of branches that got squashed (completely removed) as an earlier branch was mispredicted. (Count)
system.cpu.branchPred.squashes_0::total          6030                       # Number of branches that got squashed (completely removed) as an earlier branch was mispredicted. (Count)
system.cpu.branchPred.corrected_0::NoBranch          386     13.07%     13.07% # Number of branches that got corrected but not yet commited. Branches get corrected by decode or after execute. Also a branch misprediction can be detected out-of-order. Therefore, a corrected branch might not end up beeing committed in case an even earlier branch was mispredicted (Count)
system.cpu.branchPred.corrected_0::Return           10      0.34%     13.41% # Number of branches that got corrected but not yet commited. Branches get corrected by decode or after execute. Also a branch misprediction can be detected out-of-order. Therefore, a corrected branch might not end up beeing committed in case an even earlier branch was mispredicted (Count)
system.cpu.branchPred.corrected_0::CallDirect          224      7.59%     21.00% # Number of branches that got corrected but not yet commited. Branches get corrected by decode or after execute. Also a branch misprediction can be detected out-of-order. Therefore, a corrected branch might not end up beeing committed in case an even earlier branch was mispredicted (Count)
system.cpu.branchPred.corrected_0::CallIndirect           28      0.95%     21.94% # Number of branches that got corrected but not yet commited. Branches get corrected by decode or after execute. Also a branch misprediction can be detected out-of-order. Therefore, a corrected branch might not end up beeing committed in case an even earlier branch was mispredicted (Count)
system.cpu.branchPred.corrected_0::DirectCond         2109     71.42%     93.36% # Number of branches that got corrected but not yet commited. Branches get corrected by decode or after execute. Also a branch misprediction can be detected out-of-order. Therefore, a corrected branch might not end up beeing committed in case an even earlier branch was mispredicted (Count)
system.cpu.branchPred.corrected_0::DirectUncond          171      5.79%     99.15% # Number of branches that got corrected but not yet commited. Branches get corrected by decode or after execute. Also a branch misprediction can be detected out-of-order. Therefore, a corrected branch might not end up beeing committed in case an even earlier branch was mispredicted (Count)
system.cpu.branchPred.corrected_0::IndirectCond            0      0.00%     99.15% # Number of branches that got corrected but not yet commited. Branches get corrected by decode or after execute. Also a branch misprediction can be detected out-of-order. Therefore, a corrected branch might not end up beeing committed in case an even earlier branch was mispredicted (Count)
system.cpu.branchPred.corrected_0::IndirectUncond           25      0.85%    100.00% # Number of branches that got corrected but not yet commited. Branches get corrected by decode or after execute. Also a branch misprediction can be detected out-of-order. Therefore, a corrected branch might not end up beeing committed in case an even earlier branch was mispredicted (Count)
system.cpu.branchPred.corrected_0::total         2953                       # Number of branches that got corrected but not yet commited. Branches get corrected by decode or after execute. Also a branch misprediction can be detected out-of-order. Therefore, a corrected branch might not end up beeing committed in case an even earlier branch was mispredicted (Count)
system.cpu.branchPred.earlyResteers_0::NoBranch            0                       # Number of branches that got redirected after decode. (Count)
system.cpu.branchPred.earlyResteers_0::Return            0                       # Number of branches that got redirected after decode. (Count)
system.cpu.branchPred.earlyResteers_0::CallDirect            0                       # Number of branches that got redirected after decode. (Count)
system.cpu.branchPred.earlyResteers_0::CallIndirect            0                       # Number of branches that got redirected after decode. (Count)
system.cpu.branchPred.earlyResteers_0::DirectCond            0                       # Number of branches that got redirected after decode. (Count)
system.cpu.branchPred.earlyResteers_0::DirectUncond            0                       # Number of branches that got redirected after decode. (Count)
system.cpu.branchPred.earlyResteers_0::IndirectCond            0                       # Number of branches that got redirected after decode. (Count)
system.cpu.branchPred.earlyResteers_0::IndirectUncond            0                       # Number of branches that got redirected after decode. (Count)
system.cpu.branchPred.earlyResteers_0::total            0                       # Number of branches that got redirected after decode. (Count)
system.cpu.branchPred.committed_0::NoBranch          386      0.00%      0.00% # Number of branches finally committed  (Count)
system.cpu.branchPred.committed_0::Return         2748      0.01%      0.01% # Number of branches finally committed  (Count)
system.cpu.branchPred.committed_0::CallDirect         2705      0.01%      0.01% # Number of branches finally committed  (Count)
system.cpu.branchPred.committed_0::CallIndirect           42      0.00%      0.01% # Number of branches finally committed  (Count)
system.cpu.branchPred.committed_0::DirectCond     47515100     94.05%     94.06% # Number of branches finally committed  (Count)
system.cpu.branchPred.committed_0::DirectUncond      3002095      5.94%    100.00% # Number of branches finally committed  (Count)
system.cpu.branchPred.committed_0::IndirectCond            0      0.00%    100.00% # Number of branches finally committed  (Count)
system.cpu.branchPred.committed_0::IndirectUncond           73      0.00%    100.00% # Number of branches finally committed  (Count)
system.cpu.branchPred.committed_0::total     50523149                       # Number of branches finally committed  (Count)
system.cpu.branchPred.mispredicted_0::NoBranch          386     13.07%     13.07% # Number of committed branches that were mispredicted. (Count)
system.cpu.branchPred.mispredicted_0::Return           10      0.34%     13.41% # Number of committed branches that were mispredicted. (Count)
system.cpu.branchPred.mispredicted_0::CallDirect          224      7.59%     21.00% # Number of committed branches that were mispredicted. (Count)
system.cpu.branchPred.mispredicted_0::CallIndirect           28      0.95%     21.94% # Number of committed branches that were mispredicted. (Count)
system.cpu.branchPred.mispredicted_0::DirectCond         2109     71.42%     93.36% # Number of committed branches that were mispredicted. (Count)
system.cpu.branchPred.mispredicted_0::DirectUncond          171      5.79%     99.15% # Number of committed branches that were mispredicted. (Count)
system.cpu.branchPred.mispredicted_0::IndirectCond            0      0.00%     99.15% # Number of committed branches that were mispredicted. (Count)
system.cpu.branchPred.mispredicted_0::IndirectUncond           25      0.85%    100.00% # Number of committed branches that were mispredicted. (Count)
system.cpu.branchPred.mispredicted_0::total         2953                       # Number of committed branches that were mispredicted. (Count)
system.cpu.branchPred.mispredictDueToPredictor_0::NoBranch            0      0.00%      0.00% # Number of committed branches that were mispredicted by the predictor. (Count)
system.cpu.branchPred.mispredictDueToPredictor_0::Return            0      0.00%      0.00% # Number of committed branches that were mispredicted by the predictor. (Count)
system.cpu.branchPred.mispredictDueToPredictor_0::CallDirect            0      0.00%      0.00% # Number of committed branches that were mispredicted by the predictor. (Count)
system.cpu.branchPred.mispredictDueToPredictor_0::CallIndirect            0      0.00%      0.00% # Number of committed branches that were mispredicted by the predictor. (Count)
system.cpu.branchPred.mispredictDueToPredictor_0::DirectCond         1478    100.00%    100.00% # Number of committed branches that were mispredicted by the predictor. (Count)
system.cpu.branchPred.mispredictDueToPredictor_0::DirectUncond            0      0.00%    100.00% # Number of committed branches that were mispredicted by the predictor. (Count)
system.cpu.branchPred.mispredictDueToPredictor_0::IndirectCond            0      0.00%    100.00% # Number of committed branches that were mispredicted by the predictor. (Count)
system.cpu.branchPred.mispredictDueToPredictor_0::IndirectUncond            0      0.00%    100.00% # Number of committed branches that were mispredicted by the predictor. (Count)
system.cpu.branchPred.mispredictDueToPredictor_0::total         1478                       # Number of committed branches that were mispredicted by the predictor. (Count)
system.cpu.branchPred.mispredictDueToBTBMiss_0::NoBranch          386     26.17%     26.17% # Number of committed branches that were mispredicted because of a BTB miss. (Count)
system.cpu.branchPred.mispredictDueToBTBMiss_0::Return           10      0.68%     26.85% # Number of committed branches that were mispredicted because of a BTB miss. (Count)
system.cpu.branchPred.mispredictDueToBTBMiss_0::CallDirect          224     15.19%     42.03% # Number of committed branches that were mispredicted because of a BTB miss. (Count)
system.cpu.branchPred.mispredictDueToBTBMiss_0::CallIndirect           28      1.90%     43.93% # Number of committed branches that were mispredicted because of a BTB miss. (Count)
system.cpu.branchPred.mispredictDueToBTBMiss_0::DirectCond          631     42.78%     86.71% # Number of committed branches that were mispredicted because of a BTB miss. (Count)
system.cpu.branchPred.mispredictDueToBTBMiss_0::DirectUncond          171     11.59%     98.31% # Number of committed branches that were mispredicted because of a BTB miss. (Count)
system.cpu.branchPred.mispredictDueToBTBMiss_0::IndirectCond            0      0.00%     98.31% # Number of committed branches that were mispredicted because of a BTB miss. (Count)
system.cpu.branchPred.mispredictDueToBTBMiss_0::IndirectUncond           25      1.69%    100.00% # Number of committed branches that were mispredicted because of a BTB miss. (Count)
system.cpu.branchPred.mispredictDueToBTBMiss_0::total         1475                       # Number of committed branches that were mispredicted because of a BTB miss. (Count)
system.cpu.branchPred.targetProvider_0::NoTarget        14066      0.03%      0.03% # The component providing the target for taken branches (Count)
system.cpu.branchPred.targetProvider_0::BTB     50511351     99.96%     99.99% # The component providing the target for taken branches (Count)
system.cpu.branchPred.targetProvider_0::RAS         3719      0.01%    100.00% # The component providing the target for taken branches (Count)
system.cpu.branchPred.targetProvider_0::Indirect           48      0.00%    100.00% # The component providing the target for taken branches (Count)
system.cpu.branchPred.targetProvider_0::total     50529184                       # The component providing the target for taken branches (Count)
system.cpu.branchPred.targetWrong_0::NoBranch         2052     79.94%     79.94% # Number of branches where the target was incorrect or not available at prediction time. (Count)
system.cpu.branchPred.targetWrong_0::Return          505     19.67%     99.61% # Number of branches where the target was incorrect or not available at prediction time. (Count)
system.cpu.branchPred.targetWrong_0::CallDirect            8      0.31%     99.92% # Number of branches where the target was incorrect or not available at prediction time. (Count)
system.cpu.branchPred.targetWrong_0::CallIndirect            2      0.08%    100.00% # Number of branches where the target was incorrect or not available at prediction time. (Count)
system.cpu.branchPred.targetWrong_0::DirectCond            0      0.00%    100.00% # Number of branches where the target was incorrect or not available at prediction time. (Count)
system.cpu.branchPred.targetWrong_0::DirectUncond            0      0.00%    100.00% # Number of branches where the target was incorrect or not available at prediction time. (Count)
system.cpu.branchPred.targetWrong_0::IndirectCond            0      0.00%    100.00% # Number of branches where the target was incorrect or not available at prediction time. (Count)
system.cpu.branchPred.targetWrong_0::IndirectUncond            0      0.00%    100.00% # Number of branches where the target was incorrect or not available at prediction time. (Count)
system.cpu.branchPred.targetWrong_0::total         2567                       # Number of branches where the target was incorrect or not available at prediction time. (Count)
system.cpu.branchPred.condPredicted          47519210                       # Number of conditional branches predicted (Count)
system.cpu.branchPred.condPredictedTaken     47508040                       # Number of conditional branches predicted as taken (Count)
system.cpu.branchPred.condIncorrect              2953                       # Number of conditional branches incorrect (Count)
system.cpu.branchPred.predTakenBTBMiss            761                       # Number of branches predicted taken but missed in BTB (Count)
system.cpu.branchPred.BTBLookups             50529184                       # Number of BTB lookups (Count)
system.cpu.branchPred.BTBUpdates                 1999                       # Number of BTB updates (Count)
system.cpu.branchPred.BTBHits                50515994                       # Number of BTB hits (Count)
system.cpu.branchPred.BTBHitRatio            0.999739                       # BTB Hit Ratio (Ratio)
system.cpu.branchPred.BTBMispredicted            1026                       # Number BTB mispredictions. No target found or target wrong (Count)
system.cpu.branchPred.indirectLookups             150                       # Number of indirect predictor lookups. (Count)
system.cpu.branchPred.indirectHits                 48                       # Number of indirect target hits. (Count)
system.cpu.branchPred.indirectMisses              102                       # Number of indirect misses. (Count)
system.cpu.branchPred.indirectMispredicted            0                       # Number of mispredicted indirect branches. (Count)
system.cpu.branchPred.btb.lookups::NoBranch          390      0.00%      0.00% # Number of BTB lookups (Count)
system.cpu.branchPred.btb.lookups::Return         3724      0.01%      0.01% # Number of BTB lookups (Count)
system.cpu.branchPred.btb.lookups::CallDirect         3252      0.01%      0.01% # Number of BTB lookups (Count)
system.cpu.branchPred.btb.lookups::CallIndirect           75      0.00%      0.01% # Number of BTB lookups (Count)
system.cpu.branchPred.btb.lookups::DirectCond     47518820     94.04%     94.06% # Number of BTB lookups (Count)
system.cpu.branchPred.btb.lookups::DirectUncond      3002848      5.94%    100.00% # Number of BTB lookups (Count)
system.cpu.branchPred.btb.lookups::IndirectCond            0      0.00%    100.00% # Number of BTB lookups (Count)
system.cpu.branchPred.btb.lookups::IndirectUncond           75      0.00%    100.00% # Number of BTB lookups (Count)
system.cpu.branchPred.btb.lookups::total     50529184                       # Number of BTB lookups (Count)
system.cpu.branchPred.btb.misses::NoBranch          390      2.96%      2.96% # Number of BTB misses (Count)
system.cpu.branchPred.btb.misses::Return         3724     28.23%     31.19% # Number of BTB misses (Count)
system.cpu.branchPred.btb.misses::CallDirect          582      4.41%     35.60% # Number of BTB misses (Count)
system.cpu.branchPred.btb.misses::CallIndirect           75      0.57%     36.17% # Number of BTB misses (Count)
system.cpu.branchPred.btb.misses::DirectCond         7713     58.48%     94.65% # Number of BTB misses (Count)
system.cpu.branchPred.btb.misses::DirectUncond          631      4.78%     99.43% # Number of BTB misses (Count)
system.cpu.branchPred.btb.misses::IndirectCond            0      0.00%     99.43% # Number of BTB misses (Count)
system.cpu.branchPred.btb.misses::IndirectUncond           75      0.57%    100.00% # Number of BTB misses (Count)
system.cpu.branchPred.btb.misses::total         13190                       # Number of BTB misses (Count)
system.cpu.branchPred.btb.updates::NoBranch            0      0.00%      0.00% # Number of BTB updates (Count)
system.cpu.branchPred.btb.updates::Return            0      0.00%      0.00% # Number of BTB updates (Count)
system.cpu.branchPred.btb.updates::CallDirect          224     11.21%     11.21% # Number of BTB updates (Count)
system.cpu.branchPred.btb.updates::CallIndirect            0      0.00%     11.21% # Number of BTB updates (Count)
system.cpu.branchPred.btb.updates::DirectCond         1604     80.24%     91.45% # Number of BTB updates (Count)
system.cpu.branchPred.btb.updates::DirectUncond          171      8.55%    100.00% # Number of BTB updates (Count)
system.cpu.branchPred.btb.updates::IndirectCond            0      0.00%    100.00% # Number of BTB updates (Count)
system.cpu.branchPred.btb.updates::IndirectUncond            0      0.00%    100.00% # Number of BTB updates (Count)
system.cpu.branchPred.btb.updates::total         1999                       # Number of BTB updates (Count)
system.cpu.branchPred.btb.mispredict::NoBranch            0      0.00%      0.00% # Number of BTB mispredictions. No target found or target wrong. (Count)
system.cpu.branchPred.btb.mispredict::Return            0      0.00%      0.00% # Number of BTB mispredictions. No target found or target wrong. (Count)
system.cpu.branchPred.btb.mispredict::CallDirect          224     11.21%     11.21% # Number of BTB mispredictions. No target found or target wrong. (Count)
system.cpu.branchPred.btb.mispredict::CallIndirect            0      0.00%     11.21% # Number of BTB mispredictions. No target found or target wrong. (Count)
system.cpu.branchPred.btb.mispredict::DirectCond         1604     80.24%     91.45% # Number of BTB mispredictions. No target found or target wrong. (Count)
system.cpu.branchPred.btb.mispredict::DirectUncond          171      8.55%    100.00% # Number of BTB mispredictions. No target found or target wrong. (Count)
system.cpu.branchPred.btb.mispredict::IndirectCond            0      0.00%    100.00% # Number of BTB mispredictions. No target found or target wrong. (Count)
system.cpu.branchPred.btb.mispredict::IndirectUncond            0      0.00%    100.00% # Number of BTB mispredictions. No target found or target wrong. (Count)
system.cpu.branchPred.btb.mispredict::total         1999                       # Number of BTB mispredictions. No target found or target wrong. (Count)
system.cpu.branchPred.btb.power_state.pwrStateResidencyTicks::UNDEFINED 3303993264000                       # Cumulative time (in ticks) in various power states (Tick)
system.cpu.branchPred.indirectBranchPred.lookups          150                       # Number of lookups (Count)
system.cpu.branchPred.indirectBranchPred.hits           48                       # Number of hits of a tag (Count)
system.cpu.branchPred.indirectBranchPred.misses          102                       # Number of misses (Count)
system.cpu.branchPred.indirectBranchPred.targetRecords           53                       # Number of targets that where recorded/installed in the cache (Count)
system.cpu.branchPred.indirectBranchPred.indirectRecords          203                       # Number of indirect branches/calls recorded in the indirect hist (Count)
system.cpu.branchPred.indirectBranchPred.speculativeOverflows            4                       # Number of times more than the allowed capacity for speculative branches/calls where in flight and destroy the path history (Count)
system.cpu.branchPred.ras.pushes                 4303                       # Number of times a PC was pushed onto the RAS (Count)
system.cpu.branchPred.ras.pops                   4303                       # Number of times a PC was poped from the RAS (Count)
system.cpu.branchPred.ras.squashes               1555                       # Number of times the stack operation was squashed due to wrong speculation. (Count)
system.cpu.branchPred.ras.used                   2748                       # Number of times the RAS is the provider (Count)
system.cpu.branchPred.ras.correct                2738                       # Number of times the RAS is the provider and the prediction is correct (Count)
system.cpu.branchPred.ras.incorrect                10                       # Number of times the RAS is the provider and the prediction is wrong (Count)
system.cpu.commitStats0.numInsts           1071113389                       # Number of instructions committed (thread level) (Count)
system.cpu.commitStats0.numOps             1071113389                       # Number of ops (including micro ops) committed (thread level) (Count)
system.cpu.commitStats0.numInstsNotNOP              0                       # Number of instructions committed excluding NOPs or prefetches (Count)
system.cpu.commitStats0.numOpsNotNOP                0                       # Number of Ops (including micro ops) Simulated (Count)
system.cpu.commitStats0.cpi                  3.084634                       # CPI: cycles per instruction (thread level) ((Cycle/Count))
system.cpu.commitStats0.ipc                  0.324188                       # IPC: instructions per cycle (thread level) ((Count/Cycle))
system.cpu.commitStats0.numMemRefs                  0                       # Number of memory references committed (Count)
system.cpu.commitStats0.numFpInsts                  0                       # Number of float instructions (Count)
system.cpu.commitStats0.numIntInsts                 0                       # Number of integer instructions (Count)
system.cpu.commitStats0.numLoadInsts                0                       # Number of load instructions (Count)
system.cpu.commitStats0.numStoreInsts               0                       # Number of store instructions (Count)
system.cpu.commitStats0.numVecInsts                 0                       # Number of vector instructions (Count)
system.cpu.commitStats0.committedInstType::No_OpClass          597      0.00%      0.00% # Class of committed instruction. (Count)
system.cpu.commitStats0.committedInstType::IntAlu    627075982     58.54%     58.54% # Class of committed instruction. (Count)
system.cpu.commitStats0.committedInstType::IntMult          532      0.00%     58.54% # Class of committed instruction. (Count)
system.cpu.commitStats0.committedInstType::IntDiv           80      0.00%     58.54% # Class of committed instruction. (Count)
system.cpu.commitStats0.committedInstType::FloatAdd     30000736      2.80%     61.35% # Class of committed instruction. (Count)
system.cpu.commitStats0.committedInstType::FloatCmp      3000369      0.28%     61.63% # Class of committed instruction. (Count)
system.cpu.commitStats0.committedInstType::FloatCvt      3000921      0.28%     61.91% # Class of committed instruction. (Count)
system.cpu.commitStats0.committedInstType::FloatMult     20000400      1.87%     63.77% # Class of committed instruction. (Count)
system.cpu.commitStats0.committedInstType::FloatMultAcc           43      0.00%     63.77% # Class of committed instruction. (Count)
system.cpu.commitStats0.committedInstType::FloatDiv           18      0.00%     63.77% # Class of committed instruction. (Count)
system.cpu.commitStats0.committedInstType::FloatMisc          430      0.00%     63.77% # Class of committed instruction. (Count)
system.cpu.commitStats0.committedInstType::FloatSqrt            0      0.00%     63.77% # Class of committed instruction. (Count)
system.cpu.commitStats0.committedInstType::SimdAdd            0      0.00%     63.77% # Class of committed instruction. (Count)
system.cpu.commitStats0.committedInstType::SimdAddAcc            0      0.00%     63.77% # Class of committed instruction. (Count)
system.cpu.commitStats0.committedInstType::SimdAlu            0      0.00%     63.77% # Class of committed instruction. (Count)
system.cpu.commitStats0.committedInstType::SimdCmp            0      0.00%     63.77% # Class of committed instruction. (Count)
system.cpu.commitStats0.committedInstType::SimdCvt            0      0.00%     63.77% # Class of committed instruction. (Count)
system.cpu.commitStats0.committedInstType::SimdMisc            0      0.00%     63.77% # Class of committed instruction. (Count)
system.cpu.commitStats0.committedInstType::SimdMult            0      0.00%     63.77% # Class of committed instruction. (Count)
system.cpu.commitStats0.committedInstType::SimdMultAcc            0      0.00%     63.77% # Class of committed instruction. (Count)
system.cpu.commitStats0.committedInstType::SimdMatMultAcc            0      0.00%     63.77% # Class of committed instruction. (Count)
system.cpu.commitStats0.committedInstType::SimdShift            0      0.00%     63.77% # Class of committed instruction. (Count)
system.cpu.commitStats0.committedInstType::SimdShiftAcc            0      0.00%     63.77% # Class of committed instruction. (Count)
system.cpu.commitStats0.committedInstType::SimdDiv            0      0.00%     63.77% # Class of committed instruction. (Count)
system.cpu.commitStats0.committedInstType::SimdSqrt            0      0.00%     63.77% # Class of committed instruction. (Count)
system.cpu.commitStats0.committedInstType::SimdFloatAdd            0      0.00%     63.77% # Class of committed instruction. (Count)
system.cpu.commitStats0.committedInstType::SimdFloatAlu            0      0.00%     63.77% # Class of committed instruction. (Count)
system.cpu.commitStats0.committedInstType::SimdFloatCmp            0      0.00%     63.77% # Class of committed instruction. (Count)
system.cpu.commitStats0.committedInstType::SimdFloatCvt            0      0.00%     63.77% # Class of committed instruction. (Count)
system.cpu.commitStats0.committedInstType::SimdFloatDiv            0      0.00%     63.77% # Class of committed instruction. (Count)
system.cpu.commitStats0.committedInstType::SimdFloatMisc            0      0.00%     63.77% # Class of committed instruction. (Count)
system.cpu.commitStats0.committedInstType::SimdFloatMult            0      0.00%     63.77% # Class of committed instruction. (Count)
system.cpu.commitStats0.committedInstType::SimdFloatMultAcc            0      0.00%     63.77% # Class of committed instruction. (Count)
system.cpu.commitStats0.committedInstType::SimdFloatMatMultAcc            0      0.00%     63.77% # Class of committed instruction. (Count)
system.cpu.commitStats0.committedInstType::SimdFloatSqrt            0      0.00%     63.77% # Class of committed instruction. (Count)
system.cpu.commitStats0.committedInstType::SimdReduceAdd            0      0.00%     63.77% # Class of committed instruction. (Count)
system.cpu.commitStats0.committedInstType::SimdReduceAlu            0      0.00%     63.77% # Class of committed instruction. (Count)
system.cpu.commitStats0.committedInstType::SimdReduceCmp            0      0.00%     63.77% # Class of committed instruction. (Count)
system.cpu.commitStats0.committedInstType::SimdFloatReduceAdd            0      0.00%     63.77% # Class of committed instruction. (Count)
system.cpu.commitStats0.committedInstType::SimdFloatReduceCmp            0      0.00%     63.77% # Class of committed instruction. (Count)
system.cpu.commitStats0.committedInstType::SimdAes            0      0.00%     63.77% # Class of committed instruction. (Count)
system.cpu.commitStats0.committedInstType::SimdAesMix            0      0.00%     63.77% # Class of committed instruction. (Count)
system.cpu.commitStats0.committedInstType::SimdSha1Hash            0      0.00%     63.77% # Class of committed instruction. (Count)
system.cpu.commitStats0.committedInstType::SimdSha1Hash2            0      0.00%     63.77% # Class of committed instruction. (Count)
system.cpu.commitStats0.committedInstType::SimdSha256Hash            0      0.00%     63.77% # Class of committed instruction. (Count)
system.cpu.commitStats0.committedInstType::SimdSha256Hash2            0      0.00%     63.77% # Class of committed instruction. (Count)
system.cpu.commitStats0.committedInstType::SimdShaSigma2            0      0.00%     63.77% # Class of committed instruction. (Count)
system.cpu.commitStats0.committedInstType::SimdShaSigma3            0      0.00%     63.77% # Class of committed instruction. (Count)
system.cpu.commitStats0.committedInstType::SimdPredAlu            0      0.00%     63.77% # Class of committed instruction. (Count)
system.cpu.commitStats0.committedInstType::Matrix            0      0.00%     63.77% # Class of committed instruction. (Count)
system.cpu.commitStats0.committedInstType::MatrixMov            0      0.00%     63.77% # Class of committed instruction. (Count)
system.cpu.commitStats0.committedInstType::MatrixOP            0      0.00%     63.77% # Class of committed instruction. (Count)
system.cpu.commitStats0.committedInstType::MemRead    197017897     18.39%     82.17% # Class of committed instruction. (Count)
system.cpu.commitStats0.committedInstType::MemWrite     47013059      4.39%     86.56% # Class of committed instruction. (Count)
system.cpu.commitStats0.committedInstType::FloatMemRead     98001776      9.15%     95.71% # Class of committed instruction. (Count)
system.cpu.commitStats0.committedInstType::FloatMemWrite     46000549      4.29%    100.00% # Class of committed instruction. (Count)
system.cpu.commitStats0.committedInstType::IprAccess            0      0.00%    100.00% # Class of committed instruction. (Count)
system.cpu.commitStats0.committedInstType::InstPrefetch            0      0.00%    100.00% # Class of committed instruction. (Count)
system.cpu.commitStats0.committedInstType::SimdUnitStrideLoad            0      0.00%    100.00% # Class of committed instruction. (Count)
system.cpu.commitStats0.committedInstType::SimdUnitStrideStore            0      0.00%    100.00% # Class of committed instruction. (Count)
system.cpu.commitStats0.committedInstType::SimdUnitStrideMaskLoad            0      0.00%    100.00% # Class of committed instruction. (Count)
system.cpu.commitStats0.committedInstType::SimdUnitStrideMaskStore            0      0.00%    100.00% # Class of committed instruction. (Count)
system.cpu.commitStats0.committedInstType::SimdStridedLoad            0      0.00%    100.00% # Class of committed instruction. (Count)
system.cpu.commitStats0.committedInstType::SimdStridedStore            0      0.00%    100.00% # Class of committed instruction. (Count)
system.cpu.commitStats0.committedInstType::SimdIndexedLoad            0      0.00%    100.00% # Class of committed instruction. (Count)
system.cpu.commitStats0.committedInstType::SimdIndexedStore            0      0.00%    100.00% # Class of committed instruction. (Count)
system.cpu.commitStats0.committedInstType::SimdWholeRegisterLoad            0      0.00%    100.00% # Class of committed instruction. (Count)
system.cpu.commitStats0.committedInstType::SimdWholeRegisterStore            0      0.00%    100.00% # Class of committed instruction. (Count)
system.cpu.commitStats0.committedInstType::SimdUnitStrideFaultOnlyFirstLoad            0      0.00%    100.00% # Class of committed instruction. (Count)
system.cpu.commitStats0.committedInstType::SimdUnitStrideSegmentedLoad            0      0.00%    100.00% # Class of committed instruction. (Count)
system.cpu.commitStats0.committedInstType::SimdUnitStrideSegmentedStore            0      0.00%    100.00% # Class of committed instruction. (Count)
system.cpu.commitStats0.committedInstType::SimdUnitStrideSegmentedFaultOnlyFirstLoad            0      0.00%    100.00% # Class of committed instruction. (Count)
system.cpu.commitStats0.committedInstType::SimdStrideSegmentedLoad            0      0.00%    100.00% # Class of committed instruction. (Count)
system.cpu.commitStats0.committedInstType::SimdStrideSegmentedStore            0      0.00%    100.00% # Class of committed instruction. (Count)
system.cpu.commitStats0.committedInstType::SimdExt            0      0.00%    100.00% # Class of committed instruction. (Count)
system.cpu.commitStats0.committedInstType::SimdFloatExt            0      0.00%    100.00% # Class of committed instruction. (Count)
system.cpu.commitStats0.committedInstType::SimdConfig            0      0.00%    100.00% # Class of committed instruction. (Count)
system.cpu.commitStats0.committedInstType::total   1071113389                       # Class of committed instruction. (Count)
system.cpu.dcache.demandHits::cpu.data      325435547                       # number of demand (read+write) hits (Count)
system.cpu.dcache.demandHits::total         325435547                       # number of demand (read+write) hits (Count)
system.cpu.dcache.overallHits::cpu.data     325435547                       # number of overall hits (Count)
system.cpu.dcache.overallHits::total        325435547                       # number of overall hits (Count)
system.cpu.dcache.demandMisses::cpu.data     19250476                       # number of demand (read+write) misses (Count)
system.cpu.dcache.demandMisses::total        19250476                       # number of demand (read+write) misses (Count)
system.cpu.dcache.overallMisses::cpu.data     19250476                       # number of overall misses (Count)
system.cpu.dcache.overallMisses::total       19250476                       # number of overall misses (Count)
system.cpu.dcache.demandMissLatency::cpu.data 2574154555000                       # number of demand (read+write) miss ticks (Tick)
system.cpu.dcache.demandMissLatency::total 2574154555000                       # number of demand (read+write) miss ticks (Tick)
system.cpu.dcache.overallMissLatency::cpu.data 2574154555000                       # number of overall miss ticks (Tick)
system.cpu.dcache.overallMissLatency::total 2574154555000                       # number of overall miss ticks (Tick)
system.cpu.dcache.demandAccesses::cpu.data    344686023                       # number of demand (read+write) accesses (Count)
system.cpu.dcache.demandAccesses::total     344686023                       # number of demand (read+write) accesses (Count)
system.cpu.dcache.overallAccesses::cpu.data    344686023                       # number of overall (read+write) accesses (Count)
system.cpu.dcache.overallAccesses::total    344686023                       # number of overall (read+write) accesses (Count)
system.cpu.dcache.demandMissRate::cpu.data     0.055849                       # miss rate for demand accesses (Ratio)
system.cpu.dcache.demandMissRate::total      0.055849                       # miss rate for demand accesses (Ratio)
system.cpu.dcache.overallMissRate::cpu.data     0.055849                       # miss rate for overall accesses (Ratio)
system.cpu.dcache.overallMissRate::total     0.055849                       # miss rate for overall accesses (Ratio)
system.cpu.dcache.demandAvgMissLatency::cpu.data 133719.008039                       # average overall miss latency in ticks ((Tick/Count))
system.cpu.dcache.demandAvgMissLatency::total 133719.008039                       # average overall miss latency in ticks ((Tick/Count))
system.cpu.dcache.overallAvgMissLatency::cpu.data 133719.008039                       # average overall miss latency ((Tick/Count))
system.cpu.dcache.overallAvgMissLatency::total 133719.008039                       # average overall miss latency ((Tick/Count))
system.cpu.dcache.blockedCycles::no_mshrs            0                       # number of cycles access was blocked (Cycle)
system.cpu.dcache.blockedCycles::no_targets            0                       # number of cycles access was blocked (Cycle)
system.cpu.dcache.blockedCauses::no_mshrs            0                       # number of times access was blocked (Count)
system.cpu.dcache.blockedCauses::no_targets            0                       # number of times access was blocked (Count)
system.cpu.dcache.avgBlocked::no_mshrs            nan                       # average number of cycles each access was blocked ((Cycle/Count))
system.cpu.dcache.avgBlocked::no_targets          nan                       # average number of cycles each access was blocked ((Cycle/Count))
system.cpu.dcache.writebacks::writebacks      5875327                       # number of writebacks (Count)
system.cpu.dcache.writebacks::total           5875327                       # number of writebacks (Count)
system.cpu.dcache.demandMshrHits::cpu.data      5499935                       # number of demand (read+write) MSHR hits (Count)
system.cpu.dcache.demandMshrHits::total       5499935                       # number of demand (read+write) MSHR hits (Count)
system.cpu.dcache.overallMshrHits::cpu.data      5499935                       # number of overall MSHR hits (Count)
system.cpu.dcache.overallMshrHits::total      5499935                       # number of overall MSHR hits (Count)
system.cpu.dcache.demandMshrMisses::cpu.data     13750541                       # number of demand (read+write) MSHR misses (Count)
system.cpu.dcache.demandMshrMisses::total     13750541                       # number of demand (read+write) MSHR misses (Count)
system.cpu.dcache.overallMshrMisses::cpu.data     13750541                       # number of overall MSHR misses (Count)
system.cpu.dcache.overallMshrMisses::total     13750541                       # number of overall MSHR misses (Count)
system.cpu.dcache.demandMshrMissLatency::cpu.data 1948645665000                       # number of demand (read+write) MSHR miss ticks (Tick)
system.cpu.dcache.demandMshrMissLatency::total 1948645665000                       # number of demand (read+write) MSHR miss ticks (Tick)
system.cpu.dcache.overallMshrMissLatency::cpu.data 1948645665000                       # number of overall MSHR miss ticks (Tick)
system.cpu.dcache.overallMshrMissLatency::total 1948645665000                       # number of overall MSHR miss ticks (Tick)
system.cpu.dcache.demandMshrMissRate::cpu.data     0.039893                       # mshr miss ratio for demand accesses (Ratio)
system.cpu.dcache.demandMshrMissRate::total     0.039893                       # mshr miss ratio for demand accesses (Ratio)
system.cpu.dcache.overallMshrMissRate::cpu.data     0.039893                       # mshr miss ratio for overall accesses (Ratio)
system.cpu.dcache.overallMshrMissRate::total     0.039893                       # mshr miss ratio for overall accesses (Ratio)
system.cpu.dcache.demandAvgMshrMissLatency::cpu.data 141714.108921                       # average overall mshr miss latency ((Tick/Count))
system.cpu.dcache.demandAvgMshrMissLatency::total 141714.108921                       # average overall mshr miss latency ((Tick/Count))
system.cpu.dcache.overallAvgMshrMissLatency::cpu.data 141714.108921                       # average overall mshr miss latency ((Tick/Count))
system.cpu.dcache.overallAvgMshrMissLatency::total 141714.108921                       # average overall mshr miss latency ((Tick/Count))
system.cpu.dcache.replacements               13750029                       # number of replacements (Count)
system.cpu.dcache.ReadReq.hits::cpu.data    243672108                       # number of ReadReq hits (Count)
system.cpu.dcache.ReadReq.hits::total       243672108                       # number of ReadReq hits (Count)
system.cpu.dcache.ReadReq.misses::cpu.data      8000308                       # number of ReadReq misses (Count)
system.cpu.dcache.ReadReq.misses::total       8000308                       # number of ReadReq misses (Count)
system.cpu.dcache.ReadReq.missLatency::cpu.data 1144928975000                       # number of ReadReq miss ticks (Tick)
system.cpu.dcache.ReadReq.missLatency::total 1144928975000                       # number of ReadReq miss ticks (Tick)
system.cpu.dcache.ReadReq.accesses::cpu.data    251672416                       # number of ReadReq accesses(hits+misses) (Count)
system.cpu.dcache.ReadReq.accesses::total    251672416                       # number of ReadReq accesses(hits+misses) (Count)
system.cpu.dcache.ReadReq.missRate::cpu.data     0.031789                       # miss rate for ReadReq accesses (Ratio)
system.cpu.dcache.ReadReq.missRate::total     0.031789                       # miss rate for ReadReq accesses (Ratio)
system.cpu.dcache.ReadReq.avgMissLatency::cpu.data 143110.612116                       # average ReadReq miss latency ((Tick/Count))
system.cpu.dcache.ReadReq.avgMissLatency::total 143110.612116                       # average ReadReq miss latency ((Tick/Count))
system.cpu.dcache.ReadReq.mshrHits::cpu.data            1                       # number of ReadReq MSHR hits (Count)
system.cpu.dcache.ReadReq.mshrHits::total            1                       # number of ReadReq MSHR hits (Count)
system.cpu.dcache.ReadReq.mshrMisses::cpu.data      8000307                       # number of ReadReq MSHR misses (Count)
system.cpu.dcache.ReadReq.mshrMisses::total      8000307                       # number of ReadReq MSHR misses (Count)
system.cpu.dcache.ReadReq.mshrMissLatency::cpu.data 1136928544000                       # number of ReadReq MSHR miss ticks (Tick)
system.cpu.dcache.ReadReq.mshrMissLatency::total 1136928544000                       # number of ReadReq MSHR miss ticks (Tick)
system.cpu.dcache.ReadReq.mshrMissRate::cpu.data     0.031789                       # mshr miss rate for ReadReq accesses (Ratio)
system.cpu.dcache.ReadReq.mshrMissRate::total     0.031789                       # mshr miss rate for ReadReq accesses (Ratio)
system.cpu.dcache.ReadReq.avgMshrMissLatency::cpu.data 142110.614505                       # average ReadReq mshr miss latency ((Tick/Count))
system.cpu.dcache.ReadReq.avgMshrMissLatency::total 142110.614505                       # average ReadReq mshr miss latency ((Tick/Count))
system.cpu.dcache.WriteReq.hits::cpu.data     81763439                       # number of WriteReq hits (Count)
system.cpu.dcache.WriteReq.hits::total       81763439                       # number of WriteReq hits (Count)
system.cpu.dcache.WriteReq.misses::cpu.data     11250168                       # number of WriteReq misses (Count)
system.cpu.dcache.WriteReq.misses::total     11250168                       # number of WriteReq misses (Count)
system.cpu.dcache.WriteReq.missLatency::cpu.data 1429225580000                       # number of WriteReq miss ticks (Tick)
system.cpu.dcache.WriteReq.missLatency::total 1429225580000                       # number of WriteReq miss ticks (Tick)
system.cpu.dcache.WriteReq.accesses::cpu.data     93013607                       # number of WriteReq accesses(hits+misses) (Count)
system.cpu.dcache.WriteReq.accesses::total     93013607                       # number of WriteReq accesses(hits+misses) (Count)
system.cpu.dcache.WriteReq.missRate::cpu.data     0.120952                       # miss rate for WriteReq accesses (Ratio)
system.cpu.dcache.WriteReq.missRate::total     0.120952                       # miss rate for WriteReq accesses (Ratio)
system.cpu.dcache.WriteReq.avgMissLatency::cpu.data 127040.376641                       # average WriteReq miss latency ((Tick/Count))
system.cpu.dcache.WriteReq.avgMissLatency::total 127040.376641                       # average WriteReq miss latency ((Tick/Count))
system.cpu.dcache.WriteReq.mshrHits::cpu.data      5499934                       # number of WriteReq MSHR hits (Count)
system.cpu.dcache.WriteReq.mshrHits::total      5499934                       # number of WriteReq MSHR hits (Count)
system.cpu.dcache.WriteReq.mshrMisses::cpu.data      5750234                       # number of WriteReq MSHR misses (Count)
system.cpu.dcache.WriteReq.mshrMisses::total      5750234                       # number of WriteReq MSHR misses (Count)
system.cpu.dcache.WriteReq.mshrMissLatency::cpu.data 811717121000                       # number of WriteReq MSHR miss ticks (Tick)
system.cpu.dcache.WriteReq.mshrMissLatency::total 811717121000                       # number of WriteReq MSHR miss ticks (Tick)
system.cpu.dcache.WriteReq.mshrMissRate::cpu.data     0.061821                       # mshr miss rate for WriteReq accesses (Ratio)
system.cpu.dcache.WriteReq.mshrMissRate::total     0.061821                       # mshr miss rate for WriteReq accesses (Ratio)
system.cpu.dcache.WriteReq.avgMshrMissLatency::cpu.data 141162.450259                       # average WriteReq mshr miss latency ((Tick/Count))
system.cpu.dcache.WriteReq.avgMshrMissLatency::total 141162.450259                       # average WriteReq mshr miss latency ((Tick/Count))
system.cpu.dcache.power_state.pwrStateResidencyTicks::UNDEFINED 3303993264000                       # Cumulative time (in ticks) in various power states (Tick)
system.cpu.dcache.tags.tagsInUse           511.994245                       # Average ticks per tags in use ((Tick/Count))
system.cpu.dcache.tags.totalRefs            339186088                       # Total number of references to valid blocks. (Count)
system.cpu.dcache.tags.sampledRefs           13750541                       # Sample count of references to valid blocks. (Count)
system.cpu.dcache.tags.avgRefs              24.667109                       # Average number of references to valid blocks. ((Count/Count))
system.cpu.dcache.tags.warmupTick              918000                       # The tick when the warmup percentage was hit. (Tick)
system.cpu.dcache.tags.occupancies::cpu.data   511.994245                       # Average occupied blocks per tick, per requestor ((Count/Tick))
system.cpu.dcache.tags.avgOccs::cpu.data     0.999989                       # Average percentage of cache occupancy ((Ratio/Tick))
system.cpu.dcache.tags.avgOccs::total        0.999989                       # Average percentage of cache occupancy ((Ratio/Tick))
system.cpu.dcache.tags.occupanciesTaskId::1024          512                       # Occupied blocks per task id (Count)
system.cpu.dcache.tags.ageTaskId_1024::0           22                       # Occupied blocks per task id, per block age (Count)
system.cpu.dcache.tags.ageTaskId_1024::1          206                       # Occupied blocks per task id, per block age (Count)
system.cpu.dcache.tags.ageTaskId_1024::2          282                       # Occupied blocks per task id, per block age (Count)
system.cpu.dcache.tags.ageTaskId_1024::4            2                       # Occupied blocks per task id, per block age (Count)
system.cpu.dcache.tags.ratioOccsTaskId::1024            1                       # Ratio of occupied blocks and all blocks, per task id (Ratio)
system.cpu.dcache.tags.tagAccesses         1392494633                       # Number of tag accesses (Count)
system.cpu.dcache.tags.dataAccesses        1392494633                       # Number of data accesses (Count)
system.cpu.dcache.tags.power_state.pwrStateResidencyTicks::UNDEFINED 3303993264000                       # Cumulative time (in ticks) in various power states (Tick)
system.cpu.executeStats0.numInsts                   0                       # Number of executed instructions (Count)
system.cpu.executeStats0.numNop                     0                       # Number of nop insts executed (Count)
system.cpu.executeStats0.numBranches                0                       # Number of branches executed (Count)
system.cpu.executeStats0.numLoadInsts               0                       # Number of load instructions executed (Count)
system.cpu.executeStats0.numStoreInsts              0                       # Number of stores executed (Count)
system.cpu.executeStats0.instRate                   0                       # Inst execution rate ((Count/Cycle))
system.cpu.executeStats0.numFpRegWrites             0                       # Number of times the floating registers were written (Count)
system.cpu.executeStats0.numMemRefs                 0                       # Number of memory refs (Count)
system.cpu.executeStats0.numVecAluAccesses            0                       # Number of vector alu accesses (Count)
system.cpu.executeStats0.numDiscardedOps         8227                       # Number of ops (including micro ops) which were discarded before commit (Count)
system.cpu.fetch2.intInstructions           624095122                       # Number of integer instructions successfully decoded (Count)
system.cpu.fetch2.fpInstructions             56003402                       # Number of floating point instructions successfully decoded (Count)
system.cpu.fetch2.vecInstructions                   0                       # Number of SIMD instructions successfully decoded (Count)
system.cpu.fetch2.loadInstructions          295024934                       # Number of memory load instructions successfully decoded (Count)
system.cpu.fetch2.storeInstructions          93016253                       # Number of memory store instructions successfully decoded (Count)
system.cpu.fetch2.amoInstructions                   0                       # Number of memory atomic instructions successfully decoded (Count)
system.cpu.fetchStats0.numInsts                     0                       # Number of instructions fetched (thread level) (Count)
system.cpu.fetchStats0.numOps                       0                       # Number of ops (including micro ops) fetched (thread level) (Count)
system.cpu.fetchStats0.fetchRate                    0                       # Number of inst fetches per cycle ((Count/Cycle))
system.cpu.fetchStats0.branchRate                   0                       # Number of branch fetches per cycle (Ratio)
system.cpu.fetchStats0.numFetchSuspends             0                       # Number of times Execute suspended instruction fetching (Count)
system.cpu.icache.demandHits::cpu.inst      202276078                       # number of demand (read+write) hits (Count)
system.cpu.icache.demandHits::total         202276078                       # number of demand (read+write) hits (Count)
system.cpu.icache.overallHits::cpu.inst     202276078                       # number of overall hits (Count)
system.cpu.icache.overallHits::total        202276078                       # number of overall hits (Count)
system.cpu.icache.demandMisses::cpu.inst          436                       # number of demand (read+write) misses (Count)
system.cpu.icache.demandMisses::total             436                       # number of demand (read+write) misses (Count)
system.cpu.icache.overallMisses::cpu.inst          436                       # number of overall misses (Count)
system.cpu.icache.overallMisses::total            436                       # number of overall misses (Count)
system.cpu.icache.demandMissLatency::cpu.inst     57836000                       # number of demand (read+write) miss ticks (Tick)
system.cpu.icache.demandMissLatency::total     57836000                       # number of demand (read+write) miss ticks (Tick)
system.cpu.icache.overallMissLatency::cpu.inst     57836000                       # number of overall miss ticks (Tick)
system.cpu.icache.overallMissLatency::total     57836000                       # number of overall miss ticks (Tick)
system.cpu.icache.demandAccesses::cpu.inst    202276514                       # number of demand (read+write) accesses (Count)
system.cpu.icache.demandAccesses::total     202276514                       # number of demand (read+write) accesses (Count)
system.cpu.icache.overallAccesses::cpu.inst    202276514                       # number of overall (read+write) accesses (Count)
system.cpu.icache.overallAccesses::total    202276514                       # number of overall (read+write) accesses (Count)
system.cpu.icache.demandMissRate::cpu.inst     0.000002                       # miss rate for demand accesses (Ratio)
system.cpu.icache.demandMissRate::total      0.000002                       # miss rate for demand accesses (Ratio)
system.cpu.icache.overallMissRate::cpu.inst     0.000002                       # miss rate for overall accesses (Ratio)
system.cpu.icache.overallMissRate::total     0.000002                       # miss rate for overall accesses (Ratio)
system.cpu.icache.demandAvgMissLatency::cpu.inst 132651.376147                       # average overall miss latency in ticks ((Tick/Count))
system.cpu.icache.demandAvgMissLatency::total 132651.376147                       # average overall miss latency in ticks ((Tick/Count))
system.cpu.icache.overallAvgMissLatency::cpu.inst 132651.376147                       # average overall miss latency ((Tick/Count))
system.cpu.icache.overallAvgMissLatency::total 132651.376147                       # average overall miss latency ((Tick/Count))
system.cpu.icache.blockedCycles::no_mshrs            0                       # number of cycles access was blocked (Cycle)
system.cpu.icache.blockedCycles::no_targets            0                       # number of cycles access was blocked (Cycle)
system.cpu.icache.blockedCauses::no_mshrs            0                       # number of times access was blocked (Count)
system.cpu.icache.blockedCauses::no_targets            0                       # number of times access was blocked (Count)
system.cpu.icache.avgBlocked::no_mshrs            nan                       # average number of cycles each access was blocked ((Cycle/Count))
system.cpu.icache.avgBlocked::no_targets          nan                       # average number of cycles each access was blocked ((Cycle/Count))
system.cpu.icache.demandMshrMisses::cpu.inst          436                       # number of demand (read+write) MSHR misses (Count)
system.cpu.icache.demandMshrMisses::total          436                       # number of demand (read+write) MSHR misses (Count)
system.cpu.icache.overallMshrMisses::cpu.inst          436                       # number of overall MSHR misses (Count)
system.cpu.icache.overallMshrMisses::total          436                       # number of overall MSHR misses (Count)
system.cpu.icache.demandMshrMissLatency::cpu.inst     57400000                       # number of demand (read+write) MSHR miss ticks (Tick)
system.cpu.icache.demandMshrMissLatency::total     57400000                       # number of demand (read+write) MSHR miss ticks (Tick)
system.cpu.icache.overallMshrMissLatency::cpu.inst     57400000                       # number of overall MSHR miss ticks (Tick)
system.cpu.icache.overallMshrMissLatency::total     57400000                       # number of overall MSHR miss ticks (Tick)
system.cpu.icache.demandMshrMissRate::cpu.inst     0.000002                       # mshr miss ratio for demand accesses (Ratio)
system.cpu.icache.demandMshrMissRate::total     0.000002                       # mshr miss ratio for demand accesses (Ratio)
system.cpu.icache.overallMshrMissRate::cpu.inst     0.000002                       # mshr miss ratio for overall accesses (Ratio)
system.cpu.icache.overallMshrMissRate::total     0.000002                       # mshr miss ratio for overall accesses (Ratio)
system.cpu.icache.demandAvgMshrMissLatency::cpu.inst 131651.376147                       # average overall mshr miss latency ((Tick/Count))
system.cpu.icache.demandAvgMshrMissLatency::total 131651.376147                       # average overall mshr miss latency ((Tick/Count))
system.cpu.icache.overallAvgMshrMissLatency::cpu.inst 131651.376147                       # average overall mshr miss latency ((Tick/Count))
system.cpu.icache.overallAvgMshrMissLatency::total 131651.376147                       # average overall mshr miss latency ((Tick/Count))
system.cpu.icache.replacements                     14                       # number of replacements (Count)
system.cpu.icache.ReadReq.hits::cpu.inst    202276078                       # number of ReadReq hits (Count)
system.cpu.icache.ReadReq.hits::total       202276078                       # number of ReadReq hits (Count)
system.cpu.icache.ReadReq.misses::cpu.inst          436                       # number of ReadReq misses (Count)
system.cpu.icache.ReadReq.misses::total           436                       # number of ReadReq misses (Count)
system.cpu.icache.ReadReq.missLatency::cpu.inst     57836000                       # number of ReadReq miss ticks (Tick)
system.cpu.icache.ReadReq.missLatency::total     57836000                       # number of ReadReq miss ticks (Tick)
system.cpu.icache.ReadReq.accesses::cpu.inst    202276514                       # number of ReadReq accesses(hits+misses) (Count)
system.cpu.icache.ReadReq.accesses::total    202276514                       # number of ReadReq accesses(hits+misses) (Count)
system.cpu.icache.ReadReq.missRate::cpu.inst     0.000002                       # miss rate for ReadReq accesses (Ratio)
system.cpu.icache.ReadReq.missRate::total     0.000002                       # miss rate for ReadReq accesses (Ratio)
system.cpu.icache.ReadReq.avgMissLatency::cpu.inst 132651.376147                       # average ReadReq miss latency ((Tick/Count))
system.cpu.icache.ReadReq.avgMissLatency::total 132651.376147                       # average ReadReq miss latency ((Tick/Count))
system.cpu.icache.ReadReq.mshrMisses::cpu.inst          436                       # number of ReadReq MSHR misses (Count)
system.cpu.icache.ReadReq.mshrMisses::total          436                       # number of ReadReq MSHR misses (Count)
system.cpu.icache.ReadReq.mshrMissLatency::cpu.inst     57400000                       # number of ReadReq MSHR miss ticks (Tick)
system.cpu.icache.ReadReq.mshrMissLatency::total     57400000                       # number of ReadReq MSHR miss ticks (Tick)
system.cpu.icache.ReadReq.mshrMissRate::cpu.inst     0.000002                       # mshr miss rate for ReadReq accesses (Ratio)
system.cpu.icache.ReadReq.mshrMissRate::total     0.000002                       # mshr miss rate for ReadReq accesses (Ratio)
system.cpu.icache.ReadReq.avgMshrMissLatency::cpu.inst 131651.376147                       # average ReadReq mshr miss latency ((Tick/Count))
system.cpu.icache.ReadReq.avgMshrMissLatency::total 131651.376147                       # average ReadReq mshr miss latency ((Tick/Count))
system.cpu.icache.power_state.pwrStateResidencyTicks::UNDEFINED 3303993264000                       # Cumulative time (in ticks) in various power states (Tick)
system.cpu.icache.tags.tagsInUse           358.130493                       # Average ticks per tags in use ((Tick/Count))
system.cpu.icache.tags.totalRefs            202276514                       # Total number of references to valid blocks. (Count)
system.cpu.icache.tags.sampledRefs                436                       # Sample count of references to valid blocks. (Count)
system.cpu.icache.tags.avgRefs           463936.958716                       # Average number of references to valid blocks. ((Count/Count))
system.cpu.icache.tags.warmupTick              138000                       # The tick when the warmup percentage was hit. (Tick)
system.cpu.icache.tags.occupancies::cpu.inst   358.130493                       # Average occupied blocks per tick, per requestor ((Count/Tick))
system.cpu.icache.tags.avgOccs::cpu.inst     0.699474                       # Average percentage of cache occupancy ((Ratio/Tick))
system.cpu.icache.tags.avgOccs::total        0.699474                       # Average percentage of cache occupancy ((Ratio/Tick))
system.cpu.icache.tags.occupanciesTaskId::1024          422                       # Occupied blocks per task id (Count)
system.cpu.icache.tags.ageTaskId_1024::0           20                       # Occupied blocks per task id, per block age (Count)
system.cpu.icache.tags.ageTaskId_1024::1           22                       # Occupied blocks per task id, per block age (Count)
system.cpu.icache.tags.ageTaskId_1024::4          380                       # Occupied blocks per task id, per block age (Count)
system.cpu.icache.tags.ratioOccsTaskId::1024     0.824219                       # Ratio of occupied blocks and all blocks, per task id (Ratio)
system.cpu.icache.tags.tagAccesses          809106492                       # Number of tag accesses (Count)
system.cpu.icache.tags.dataAccesses         809106492                       # Number of data accesses (Count)
system.cpu.icache.tags.power_state.pwrStateResidencyTicks::UNDEFINED 3303993264000                       # Cumulative time (in ticks) in various power states (Tick)
system.cpu.mmu.dtb.readHits                         0                       # read hits (Count)
system.cpu.mmu.dtb.readMisses                       0                       # read misses (Count)
system.cpu.mmu.dtb.readAccesses                     0                       # read accesses (Count)
system.cpu.mmu.dtb.writeHits                        0                       # write hits (Count)
system.cpu.mmu.dtb.writeMisses                      0                       # write misses (Count)
system.cpu.mmu.dtb.writeAccesses                    0                       # write accesses (Count)
system.cpu.mmu.dtb.hits                             0                       # Total TLB (read and write) hits (Count)
system.cpu.mmu.dtb.misses                           0                       # Total TLB (read and write) misses (Count)
system.cpu.mmu.dtb.accesses                         0                       # Total TLB (read and write) accesses (Count)
system.cpu.mmu.dtb.walker.num_4kb_walks             0                       # Completed page walks with 4KB pages (Count)
system.cpu.mmu.dtb.walker.num_64kb_walks            0                       # Completed page walks with 64KB pages (Count)
system.cpu.mmu.dtb.walker.num_2mb_walks             0                       # Completed page walks with 2MB pages (Count)
system.cpu.mmu.dtb.walker.power_state.pwrStateResidencyTicks::UNDEFINED 3303993264000                       # Cumulative time (in ticks) in various power states (Tick)
system.cpu.mmu.itb.readHits                         0                       # read hits (Count)
system.cpu.mmu.itb.readMisses                       0                       # read misses (Count)
system.cpu.mmu.itb.readAccesses                     0                       # read accesses (Count)
system.cpu.mmu.itb.writeHits                        0                       # write hits (Count)
system.cpu.mmu.itb.writeMisses                      0                       # write misses (Count)
system.cpu.mmu.itb.writeAccesses                    0                       # write accesses (Count)
system.cpu.mmu.itb.hits                             0                       # Total TLB (read and write) hits (Count)
system.cpu.mmu.itb.misses                           0                       # Total TLB (read and write) misses (Count)
system.cpu.mmu.itb.accesses                         0                       # Total TLB (read and write) accesses (Count)
system.cpu.mmu.itb.walker.num_4kb_walks             0                       # Completed page walks with 4KB pages (Count)
system.cpu.mmu.itb.walker.num_64kb_walks            0                       # Completed page walks with 64KB pages (Count)
system.cpu.mmu.itb.walker.num_2mb_walks             0                       # Completed page walks with 2MB pages (Count)
system.cpu.mmu.itb.walker.power_state.pwrStateResidencyTicks::UNDEFINED 3303993264000                       # Cumulative time (in ticks) in various power states (Tick)
system.cpu.power_state.pwrStateResidencyTicks::ON 3303993264000                       # Cumulative time (in ticks) in various power states (Tick)
system.cpu.thread_0.numInsts               1071113389                       # Number of Instructions committed (Count)
system.cpu.thread_0.numOps                 1071113389                       # Number of Ops committed (Count)
system.cpu.thread_0.numMemRefs                      0                       # Number of Memory References (Count)
system.cpu.workload.numSyscalls                   387                       # Number of system calls (Count)
system.l2bus.transDist::ReadResp              8000743                       # Transaction distribution (Count)
system.l2bus.transDist::WritebackDirty       17625981                       # Transaction distribution (Count)
system.l2bus.transDist::CleanEvict           27022623                       # Transaction distribution (Count)
system.l2bus.transDist::ReadExReq             5750234                       # Transaction distribution (Count)
system.l2bus.transDist::ReadExResp            5750234                       # Transaction distribution (Count)
system.l2bus.transDist::ReadCleanReq              436                       # Transaction distribution (Count)
system.l2bus.transDist::ReadSharedReq         8000307                       # Transaction distribution (Count)
system.l2bus.pktCount_system.cpu.icache.mem_side_port::system.l2cache.cpu_side_port          886                       # Packet count per connected requestor and responder (Count)
system.l2bus.pktCount_system.cpu.dcache.mem_side_port::system.l2cache.cpu_side_port     41251111                       # Packet count per connected requestor and responder (Count)
system.l2bus.pktCount::total                 41251997                       # Packet count per connected requestor and responder (Count)
system.l2bus.pktSize_system.cpu.icache.mem_side_port::system.l2cache.cpu_side_port        27904                       # Cumulative packet size per connected requestor and responder (Byte)
system.l2bus.pktSize_system.cpu.dcache.mem_side_port::system.l2cache.cpu_side_port   1256055552                       # Cumulative packet size per connected requestor and responder (Byte)
system.l2bus.pktSize::total                1256083456                       # Cumulative packet size per connected requestor and responder (Byte)
system.l2bus.snoops                          30898561                       # Total snoops (Count)
system.l2bus.snoopTraffic                   752041856                       # Total snoop traffic (Byte)
system.l2bus.snoopFanout::samples            44649538                       # Request fanout histogram (Count)
system.l2bus.snoopFanout::mean               0.116767                       # Request fanout histogram (Count)
system.l2bus.snoopFanout::stdev              0.321142                       # Request fanout histogram (Count)
system.l2bus.snoopFanout::underflows                0      0.00%      0.00% # Request fanout histogram (Count)
system.l2bus.snoopFanout::0                  39435944     88.32%     88.32% # Request fanout histogram (Count)
system.l2bus.snoopFanout::1                   5213594     11.68%    100.00% # Request fanout histogram (Count)
system.l2bus.snoopFanout::2                         0      0.00%    100.00% # Request fanout histogram (Count)
system.l2bus.snoopFanout::overflows                 0      0.00%    100.00% # Request fanout histogram (Count)
system.l2bus.snoopFanout::min_value                 0                       # Request fanout histogram (Count)
system.l2bus.snoopFanout::max_value                 1                       # Request fanout histogram (Count)
system.l2bus.snoopFanout::total              44649538                       # Request fanout histogram (Count)
system.l2bus.power_state.pwrStateResidencyTicks::UNDEFINED 3303993264000                       # Cumulative time (in ticks) in various power states (Tick)
system.l2bus.reqLayer0.occupancy          39251674000                       # Layer occupancy (ticks) (Tick)
system.l2bus.reqLayer0.utilization                0.0                       # Layer utilization (Ratio)
system.l2bus.respLayer0.occupancy             1308000                       # Layer occupancy (ticks) (Tick)
system.l2bus.respLayer0.utilization               0.0                       # Layer utilization (Ratio)
system.l2bus.respLayer1.occupancy         41251623000                       # Layer occupancy (ticks) (Tick)
system.l2bus.respLayer1.utilization               0.0                       # Layer utilization (Ratio)
system.l2bus.snoop_filter.totRequests        27501020                       # Total number of requests made to the snoop filter. (Count)
system.l2bus.snoop_filter.hitSingleRequests     13750044                       # Number of requests hitting in the snoop filter with a single holder of the requested data. (Count)
system.l2bus.snoop_filter.hitMultiRequests            5                       # Number of requests hitting in the snoop filter with multiple (>1) holders of the requested data. (Count)
system.l2bus.snoop_filter.totSnoops           5213588                       # Total number of snoops made to the snoop filter. (Count)
system.l2bus.snoop_filter.hitSingleSnoops      5213588                       # Number of snoops hitting in the snoop filter with a single holder of the requested data. (Count)
system.l2bus.snoop_filter.hitMultiSnoops            0                       # Number of snoops hitting in the snoop filter with multiple (>1) holders of the requested data. (Count)
system.l2cache.demandHits::cpu.inst                 2                       # number of demand (read+write) hits (Count)
system.l2cache.demandHits::total                    2                       # number of demand (read+write) hits (Count)
system.l2cache.overallHits::cpu.inst                2                       # number of overall hits (Count)
system.l2cache.overallHits::total                   2                       # number of overall hits (Count)
system.l2cache.demandMisses::cpu.inst             434                       # number of demand (read+write) misses (Count)
system.l2cache.demandMisses::cpu.data        13750541                       # number of demand (read+write) misses (Count)
system.l2cache.demandMisses::total           13750975                       # number of demand (read+write) misses (Count)
system.l2cache.overallMisses::cpu.inst            434                       # number of overall misses (Count)
system.l2cache.overallMisses::cpu.data       13750541                       # number of overall misses (Count)
system.l2cache.overallMisses::total          13750975                       # number of overall misses (Count)
system.l2cache.demandMissLatency::cpu.inst     55197000                       # number of demand (read+write) miss ticks (Tick)
system.l2cache.demandMissLatency::cpu.data 1879884744000                       # number of demand (read+write) miss ticks (Tick)
system.l2cache.demandMissLatency::total  1879939941000                       # number of demand (read+write) miss ticks (Tick)
system.l2cache.overallMissLatency::cpu.inst     55197000                       # number of overall miss ticks (Tick)
system.l2cache.overallMissLatency::cpu.data 1879884744000                       # number of overall miss ticks (Tick)
system.l2cache.overallMissLatency::total 1879939941000                       # number of overall miss ticks (Tick)
system.l2cache.demandAccesses::cpu.inst           436                       # number of demand (read+write) accesses (Count)
system.l2cache.demandAccesses::cpu.data      13750541                       # number of demand (read+write) accesses (Count)
system.l2cache.demandAccesses::total         13750977                       # number of demand (read+write) accesses (Count)
system.l2cache.overallAccesses::cpu.inst          436                       # number of overall (read+write) accesses (Count)
system.l2cache.overallAccesses::cpu.data     13750541                       # number of overall (read+write) accesses (Count)
system.l2cache.overallAccesses::total        13750977                       # number of overall (read+write) accesses (Count)
system.l2cache.demandMissRate::cpu.inst      0.995413                       # miss rate for demand accesses (Ratio)
system.l2cache.demandMissRate::cpu.data             1                       # miss rate for demand accesses (Ratio)
system.l2cache.demandMissRate::total         1.000000                       # miss rate for demand accesses (Ratio)
system.l2cache.overallMissRate::cpu.inst     0.995413                       # miss rate for overall accesses (Ratio)
system.l2cache.overallMissRate::cpu.data            1                       # miss rate for overall accesses (Ratio)
system.l2cache.overallMissRate::total        1.000000                       # miss rate for overall accesses (Ratio)
system.l2cache.demandAvgMissLatency::cpu.inst 127182.027650                       # average overall miss latency in ticks ((Tick/Count))
system.l2cache.demandAvgMissLatency::cpu.data 136713.511417                       # average overall miss latency in ticks ((Tick/Count))
system.l2cache.demandAvgMissLatency::total 136713.210591                       # average overall miss latency in ticks ((Tick/Count))
system.l2cache.overallAvgMissLatency::cpu.inst 127182.027650                       # average overall miss latency ((Tick/Count))
system.l2cache.overallAvgMissLatency::cpu.data 136713.511417                       # average overall miss latency ((Tick/Count))
system.l2cache.overallAvgMissLatency::total 136713.210591                       # average overall miss latency ((Tick/Count))
system.l2cache.blockedCycles::no_mshrs              0                       # number of cycles access was blocked (Cycle)
system.l2cache.blockedCycles::no_targets            0                       # number of cycles access was blocked (Cycle)
system.l2cache.blockedCauses::no_mshrs              0                       # number of times access was blocked (Count)
system.l2cache.blockedCauses::no_targets            0                       # number of times access was blocked (Count)
system.l2cache.avgBlocked::no_mshrs               nan                       # average number of cycles each access was blocked ((Cycle/Count))
system.l2cache.avgBlocked::no_targets             nan                       # average number of cycles each access was blocked ((Cycle/Count))
system.l2cache.writebacks::writebacks         5875327                       # number of writebacks (Count)
system.l2cache.writebacks::total              5875327                       # number of writebacks (Count)
system.l2cache.demandMshrMisses::cpu.inst          434                       # number of demand (read+write) MSHR misses (Count)
system.l2cache.demandMshrMisses::cpu.data     13750541                       # number of demand (read+write) MSHR misses (Count)
system.l2cache.demandMshrMisses::total       13750975                       # number of demand (read+write) MSHR misses (Count)
system.l2cache.overallMshrMisses::cpu.inst          434                       # number of overall MSHR misses (Count)
system.l2cache.overallMshrMisses::cpu.data     13750541                       # number of overall MSHR misses (Count)
system.l2cache.overallMshrMisses::total      13750975                       # number of overall MSHR misses (Count)
[...]
system.mem_ctrl.dram.bwTotal::cpu.data      266354848                       # Total bandwidth to/from this memory ((Byte/Second))
system.mem_ctrl.dram.bwTotal::total         380171274                       # Total bandwidth to/from this memory ((Byte/Second))
system.mem_ctrl.dram.readBursts              13750954                       # Number of DRAM read bursts (Count)
system.mem_ctrl.dram.writeBursts              5875306                       # Number of DRAM write bursts (Count)
system.mem_ctrl.dram.perBankRdBursts::0        858997                       # Per bank write bursts (Count)
system.mem_ctrl.dram.perBankRdBursts::1        858970                       # Per bank write bursts (Count)
system.mem_ctrl.dram.perBankRdBursts::2        858993                       # Per bank write bursts (Count)
system.mem_ctrl.dram.perBankRdBursts::3        858955                       # Per bank write bursts (Count)
system.mem_ctrl.dram.perBankRdBursts::4        858899                       # Per bank write bursts (Count)
system.mem_ctrl.dram.perBankRdBursts::5        858989                       # Per bank write bursts (Count)
system.mem_ctrl.dram.perBankRdBursts::6        861273                       # Per bank write bursts (Count)
system.mem_ctrl.dram.perBankRdBursts::7        863641                       # Per bank write bursts (Count)
system.mem_ctrl.dram.perBankRdBursts::8        860045                       # Per bank write bursts (Count)
system.mem_ctrl.dram.perBankRdBursts::9        858917                       # Per bank write bursts (Count)
system.mem_ctrl.dram.perBankRdBursts::10       858880                       # Per bank write bursts (Count)
system.mem_ctrl.dram.perBankRdBursts::11       858877                       # Per bank write bursts (Count)
system.mem_ctrl.dram.perBankRdBursts::12       858880                       # Per bank write bursts (Count)
system.mem_ctrl.dram.perBankRdBursts::13       858879                       # Per bank write bursts (Count)
system.mem_ctrl.dram.perBankRdBursts::14       858880                       # Per bank write bursts (Count)
system.mem_ctrl.dram.perBankRdBursts::15       858879                       # Per bank write bursts (Count)
system.mem_ctrl.dram.perBankWrBursts::0        366975                       # Per bank write bursts (Count)
system.mem_ctrl.dram.perBankWrBursts::1        366972                       # Per bank write bursts (Count)
system.mem_ctrl.dram.perBankWrBursts::2        366972                       # Per bank write bursts (Count)
system.mem_ctrl.dram.perBankWrBursts::3        366975                       # Per bank write bursts (Count)
system.mem_ctrl.dram.perBankWrBursts::4        366975                       # Per bank write bursts (Count)
system.mem_ctrl.dram.perBankWrBursts::5        366975                       # Per bank write bursts (Count)
system.mem_ctrl.dram.perBankWrBursts::6        367909                       # Per bank write bursts (Count)
system.mem_ctrl.dram.perBankWrBursts::7        369048                       # Per bank write bursts (Count)
system.mem_ctrl.dram.perBankWrBursts::8        367651                       # Per bank write bursts (Count)
system.mem_ctrl.dram.perBankWrBursts::9        367003                       # Per bank write bursts (Count)
system.mem_ctrl.dram.perBankWrBursts::10       366976                       # Per bank write bursts (Count)
system.mem_ctrl.dram.perBankWrBursts::11       366973                       # Per bank write bursts (Count)
system.mem_ctrl.dram.perBankWrBursts::12       366976                       # Per bank write bursts (Count)
system.mem_ctrl.dram.perBankWrBursts::13       366975                       # Per bank write bursts (Count)
system.mem_ctrl.dram.perBankWrBursts::14       366976                       # Per bank write bursts (Count)
system.mem_ctrl.dram.perBankWrBursts::15       366975                       # Per bank write bursts (Count)
system.mem_ctrl.dram.totQLat             253853129250                       # Total ticks spent queuing (Tick)
system.mem_ctrl.dram.totBusLat            68754770000                       # Total ticks spent in databus transfers (Tick)
system.mem_ctrl.dram.totMemAccLat        511683516750                       # Total ticks spent from burst creation until serviced by the DRAM (Tick)
system.mem_ctrl.dram.avgQLat                 18460.76                       # Average queueing delay per DRAM burst ((Tick/Count))
system.mem_ctrl.dram.avgBusLat                5000.00                       # Average bus latency per DRAM burst ((Tick/Count))
system.mem_ctrl.dram.avgMemAccLat            37210.76                       # Average memory access latency per DRAM burst ((Tick/Count))
system.mem_ctrl.dram.readRowHits              6784054                       # Number of row buffer hits during reads (Count)
system.mem_ctrl.dram.writeRowHits             4389799                       # Number of row buffer hits during writes (Count)
system.mem_ctrl.dram.readRowHitRate             49.34                       # Row buffer hit rate for reads (Ratio)
system.mem_ctrl.dram.writeRowHitRate            74.72                       # Row buffer hit rate for writes (Ratio)
system.mem_ctrl.dram.bytesPerActivate::samples      8452402                       # Bytes accessed per row activation (Byte)
system.mem_ctrl.dram.bytesPerActivate::mean   148.606187                       # Bytes accessed per row activation (Byte)
system.mem_ctrl.dram.bytesPerActivate::gmean    94.146306                       # Bytes accessed per row activation (Byte)
system.mem_ctrl.dram.bytesPerActivate::stdev   202.391083                       # Bytes accessed per row activation (Byte)
system.mem_ctrl.dram.bytesPerActivate::0-127      6571669     77.75%     77.75% # Bytes accessed per row activation (Byte)
system.mem_ctrl.dram.bytesPerActivate::128-255       517923      6.13%     83.88% # Bytes accessed per row activation (Byte)
system.mem_ctrl.dram.bytesPerActivate::256-383       341055      4.04%     87.91% # Bytes accessed per row activation (Byte)
system.mem_ctrl.dram.bytesPerActivate::384-511       275317      3.26%     91.17% # Bytes accessed per row activation (Byte)
system.mem_ctrl.dram.bytesPerActivate::512-639       210674      2.49%     93.66% # Bytes accessed per row activation (Byte)
system.mem_ctrl.dram.bytesPerActivate::640-767       235613      2.79%     96.45% # Bytes accessed per row activation (Byte)
system.mem_ctrl.dram.bytesPerActivate::768-895       121049      1.43%     97.88% # Bytes accessed per row activation (Byte)
system.mem_ctrl.dram.bytesPerActivate::896-1023        87526      1.04%     98.92% # Bytes accessed per row activation (Byte)
system.mem_ctrl.dram.bytesPerActivate::1024-1151        91576      1.08%    100.00% # Bytes accessed per row activation (Byte)
system.mem_ctrl.dram.bytesPerActivate::total      8452402                       # Bytes accessed per row activation (Byte)
system.mem_ctrl.dram.dramBytesRead          880061056                       # Total bytes read (Byte)
system.mem_ctrl.dram.dramBytesWritten       376019584                       # Total bytes written (Byte)
system.mem_ctrl.dram.avgRdBW               266.362848                       # Average DRAM read bandwidth in MiBytes/s ((Byte/Second))
system.mem_ctrl.dram.avgWrBW               113.807612                       # Average DRAM write bandwidth in MiBytes/s ((Byte/Second))
system.mem_ctrl.dram.peakBW                  12800.00                       # Theoretical peak bandwidth in MiByte/s ((Byte/Second))
system.mem_ctrl.dram.busUtil                     2.97                       # Data bus utilization in percentage (Ratio)
system.mem_ctrl.dram.busUtilRead                 2.08                       # Data bus utilization in percentage for reads (Ratio)
system.mem_ctrl.dram.busUtilWrite                0.89                       # Data bus utilization in percentage for writes (Ratio)
system.mem_ctrl.dram.pageHitRate                56.93                       # Row buffer hit rate, read and write combined (Ratio)
system.mem_ctrl.dram.power_state.pwrStateResidencyTicks::UNDEFINED 3303993264000                       # Cumulative time (in ticks) in various power states (Tick)
system.mem_ctrl.dram.rank0.actEnergy      30191497140                       # Energy for activate commands per rank (pJ) (Joule)
system.mem_ctrl.dram.rank0.preEnergy      16047146115                       # Energy for precharge commands per rank (pJ) (Joule)
system.mem_ctrl.dram.rank0.readEnergy     49114039380                       # Energy for read commands per rank (pJ) (Joule)
system.mem_ctrl.dram.rank0.writeEnergy    15340541220                       # Energy for write commands per rank (pJ) (Joule)
system.mem_ctrl.dram.rank0.refreshEnergy 260813879040.000031                       # Energy for refresh commands per rank (pJ) (Joule)
system.mem_ctrl.dram.rank0.actBackEnergy 992991495510                       # Energy for active background per rank (pJ) (Joule)
system.mem_ctrl.dram.rank0.preBackEnergy 432530049120                       # Energy for precharge background per rank (pJ) (Joule)
system.mem_ctrl.dram.rank0.actPowerDownEnergy            0                       # Energy for active power-down per rank (pJ) (Joule)
system.mem_ctrl.dram.rank0.prePowerDownEnergy            0                       # Energy for precharge power-down per rank (pJ) (Joule)
system.mem_ctrl.dram.rank0.selfRefreshEnergy            0                       # Energy for self refresh per rank (pJ) (Joule)
system.mem_ctrl.dram.rank0.totalEnergy   1797028647525                       # Total energy per rank (pJ) (Joule)
system.mem_ctrl.dram.rank0.averagePower    543.895978                       # Core power per rank (mW) (Watt)
system.mem_ctrl.dram.rank0.totalIdleTime            0                       # Total Idle time Per DRAM Rank (Tick)
system.mem_ctrl.dram.rank0.pwrStateTime::IDLE 1104121375000                       # Time in different power states (Tick)
system.mem_ctrl.dram.rank0.pwrStateTime::REF 110327360000                       # Time in different power states (Tick)
system.mem_ctrl.dram.rank0.pwrStateTime::SREF            0                       # Time in different power states (Tick)
system.mem_ctrl.dram.rank0.pwrStateTime::PRE_PDN            0                       # Time in different power states (Tick)
system.mem_ctrl.dram.rank0.pwrStateTime::ACT 2089544529000                       # Time in different power states (Tick)
system.mem_ctrl.dram.rank0.pwrStateTime::ACT_PDN            0                       # Time in different power states (Tick)
system.mem_ctrl.dram.rank1.actEnergy      30158688840                       # Energy for activate commands per rank (pJ) (Joule)
system.mem_ctrl.dram.rank1.preEnergy      16029719475                       # Energy for precharge commands per rank (pJ) (Joule)
system.mem_ctrl.dram.rank1.readEnergy     49067772180                       # Energy for read commands per rank (pJ) (Joule)
system.mem_ctrl.dram.rank1.writeEnergy    15328556100                       # Energy for write commands per rank (pJ) (Joule)
system.mem_ctrl.dram.rank1.refreshEnergy 260813879040.000031                       # Energy for refresh commands per rank (pJ) (Joule)
system.mem_ctrl.dram.rank1.actBackEnergy 991174376550                       # Energy for active background per rank (pJ) (Joule)
system.mem_ctrl.dram.rank1.preBackEnergy 434060254560                       # Energy for precharge background per rank (pJ) (Joule)
system.mem_ctrl.dram.rank1.actPowerDownEnergy            0                       # Energy for active power-down per rank (pJ) (Joule)
system.mem_ctrl.dram.rank1.prePowerDownEnergy            0                       # Energy for precharge power-down per rank (pJ) (Joule)
system.mem_ctrl.dram.rank1.selfRefreshEnergy            0                       # Energy for self refresh per rank (pJ) (Joule)
system.mem_ctrl.dram.rank1.totalEnergy   1796633246745                       # Total energy per rank (pJ) (Joule)
system.mem_ctrl.dram.rank1.averagePower    543.776304                       # Core power per rank (mW) (Watt)
system.mem_ctrl.dram.rank1.totalIdleTime            0                       # Total Idle time Per DRAM Rank (Tick)
system.mem_ctrl.dram.rank1.pwrStateTime::IDLE 1108120717000                       # Time in different power states (Tick)
system.mem_ctrl.dram.rank1.pwrStateTime::REF 110327360000                       # Time in different power states (Tick)
system.mem_ctrl.dram.rank1.pwrStateTime::SREF            0                       # Time in different power states (Tick)
system.mem_ctrl.dram.rank1.pwrStateTime::PRE_PDN            0                       # Time in different power states (Tick)
system.mem_ctrl.dram.rank1.pwrStateTime::ACT 2085545187000                       # Time in different power states (Tick)
system.mem_ctrl.dram.rank1.pwrStateTime::ACT_PDN            0                       # Time in different power states (Tick)
system.mem_ctrl.power_state.pwrStateResidencyTicks::UNDEFINED 3303993264000                       # Cumulative time (in ticks) in various power states (Tick)
system.membus.transDist::ReadResp             8000741                       # Transaction distribution (Count)
system.membus.transDist::WritebackDirty       5875327                       # Transaction distribution (Count)
system.membus.transDist::CleanEvict           7866205                       # Transaction distribution (Count)
system.membus.transDist::ReadExReq            5750234                       # Transaction distribution (Count)
system.membus.transDist::ReadExResp           5750234                       # Transaction distribution (Count)
system.membus.transDist::ReadSharedReq        8000741                       # Transaction distribution (Count)
system.membus.pktCount_system.l3cache0.mem_side_port::system.mem_ctrl.port     10310903                       # Packet count per connected requestor and responder (Count)
system.membus.pktCount_system.l3cache1.mem_side_port::system.mem_ctrl.port     10310882                       # Packet count per connected requestor and responder (Count)
system.membus.pktCount_system.l3cache2.mem_side_port::system.mem_ctrl.port     10310883                       # Packet count per connected requestor and responder (Count)
system.membus.pktCount_system.l3cache3.mem_side_port::system.mem_ctrl.port     10310814                       # Packet count per connected requestor and responder (Count)
system.membus.pktCount::total                41243482                       # Packet count per connected requestor and responder (Count)
system.membus.pktSize_system.l3cache0.mem_side_port::system.mem_ctrl.port    314021696                       # Cumulative packet size per connected requestor and responder (Byte)
system.membus.pktSize_system.l3cache1.mem_side_port::system.mem_ctrl.port    314022208                       # Cumulative packet size per connected requestor and responder (Byte)
system.membus.pktSize_system.l3cache2.mem_side_port::system.mem_ctrl.port    314022208                       # Cumulative packet size per connected requestor and responder (Byte)
system.membus.pktSize_system.l3cache3.mem_side_port::system.mem_ctrl.port    314017216                       # Cumulative packet size per connected requestor and responder (Byte)
system.membus.pktSize::total               1256083328                       # Cumulative packet size per connected requestor and responder (Byte)
system.membus.snoops                                0                       # Total snoops (Count)
system.membus.snoopTraffic                          0                       # Total snoop traffic (Byte)
system.membus.snoopFanout::samples           13750975                       # Request fanout histogram (Count)
system.membus.snoopFanout::mean                     0                       # Request fanout histogram (Count)
system.membus.snoopFanout::stdev                    0                       # Request fanout histogram (Count)
system.membus.snoopFanout::underflows               0      0.00%      0.00% # Request fanout histogram (Count)
system.membus.snoopFanout::0                 13750975    100.00%    100.00% # Request fanout histogram (Count)
system.membus.snoopFanout::1                        0      0.00%    100.00% # Request fanout histogram (Count)
system.membus.snoopFanout::2                        0      0.00%    100.00% # Request fanout histogram (Count)
system.membus.snoopFanout::3                        0      0.00%    100.00% # Request fanout histogram (Count)
system.membus.snoopFanout::4                        0      0.00%    100.00% # Request fanout histogram (Count)
system.membus.snoopFanout::overflows                0      0.00%    100.00% # Request fanout histogram (Count)
system.membus.snoopFanout::min_value                0                       # Request fanout histogram (Count)
system.membus.snoopFanout::max_value                0                       # Request fanout histogram (Count)
system.membus.snoopFanout::total             13750975                       # Request fanout histogram (Count)
system.membus.power_state.pwrStateResidencyTicks::UNDEFINED 3303993264000                       # Cumulative time (in ticks) in various power states (Tick)
system.membus.reqLayer0.occupancy         50993815001                       # Layer occupancy (ticks) (Tick)
system.membus.reqLayer0.utilization               0.0                       # Layer utilization (Ratio)
system.membus.respLayer0.occupancy        18822500250                       # Layer occupancy (ticks) (Tick)
system.membus.respLayer0.utilization              0.0                       # Layer utilization (Ratio)
system.membus.respLayer1.occupancy        18804785500                       # Layer occupancy (ticks) (Tick)
system.membus.respLayer1.utilization              0.0                       # Layer utilization (Ratio)
system.membus.respLayer2.occupancy        18804784250                       # Layer occupancy (ticks) (Tick)
system.membus.respLayer2.utilization              0.0                       # Layer utilization (Ratio)
system.membus.respLayer3.occupancy        18804573000                       # Layer occupancy (ticks) (Tick)
system.membus.respLayer3.utilization              0.0                       # Layer utilization (Ratio)
system.membus.snoop_filter.totRequests       27492507                       # Total number of requests made to the snoop filter. (Count)
system.membus.snoop_filter.hitSingleRequests     13741537                       # Number of requests hitting in the snoop filter with a single holder of the requested data. (Count)
system.membus.snoop_filter.hitMultiRequests            0                       # Number of requests hitting in the snoop filter with multiple (>1) holders of the requested data. (Count)
system.membus.snoop_filter.totSnoops                0                       # Total number of snoops made to the snoop filter. (Count)
system.membus.snoop_filter.hitSingleSnoops            0                       # Number of snoops hitting in the snoop filter with a single holder of the requested data. (Count)
system.membus.snoop_filter.hitMultiSnoops            0                       # Number of snoops hitting in the snoop filter with multiple (>1) holders of the requested data. (Count)
system.workload.inst.arm                            0                       # number of arm instructions executed (Count)
system.workload.inst.quiesce                        0                       # number of quiesce instructions executed (Count)
system.cpu.idleCycles                      1798615029                       # Total number of cycles that the object has spent stopped (Unspecified)
system.cpu.tickCycles                      1505378235                       # Number of cycles that the object actually ticked (Unspecified)

---------- End Simulation Statistics   ----------
