
---------- Begin Simulation Statistics ----------
simSeconds                                   1.674048                       # Number of seconds simulated (Second)
simTicks                                 1674047892000                       # Number of ticks simulated (Tick)
finalTick                                1674047892000                       # Number of ticks from beginning of simulation (restored from checkpoints and never reset) (Tick)
simFreq                                  1000000000000                       # The number of ticks per simulated second ((Tick/Second))
hostSeconds                                   2409.82                       # Real time elapsed on the host (Second)
hostTickRate                                694677524                       # The number of ticks simulated per host second (ticks/s) ((Tick/Second))
hostMemory                                  405614064                       # Number of bytes of host memory used (Byte)
simInsts                                   1071113131                       # Number of instructions simulated (Count)
simOps                                     1071113131                       # Number of ops (including micro ops) simulated (Count)
hostInstRate                                   444478                       # Simulator instruction rate (inst/s) ((Count/Second))
hostOpRate                                     444478                       # Simulator op (including micro ops) rate (op/s) ((Count/Second))
system.clk_domain.clock                          1000                       # Clock period in ticks (Tick)
system.clk_domain.voltage_domain.voltage            1                       # Voltage in Volts (Volt)
system.cpu.numCycles                       1674047892                       # Number of cpu cycles simulated (Cycle)
system.cpu.cpi                               1.562905                       # CPI: cycles per instruction (core level) ((Cycle/Count))
system.cpu.ipc                               0.639834                       # IPC: instructions per cycle (core level) ((Count/Cycle))
system.cpu.numWorkItemsStarted                      0                       # Number of work items this cpu started (Count)
system.cpu.numWorkItemsCompleted                    0                       # Number of work items this cpu completed (Count)
system.cpu.branchPred.lookups_0::NoBranch          391      0.00%      0.00% # Number of BP lookups (Count)
system.cpu.branchPred.lookups_0::Return          3714      0.01%      0.01% # Number of BP lookups (Count)
system.cpu.branchPred.lookups_0::CallDirect         3261      0.01%      0.01% # Number of BP lookups (Count)
system.cpu.branchPred.lookups_0::CallIndirect           73      0.00%      0.01% # Number of BP lookups (Count)
system.cpu.branchPred.lookups_0::DirectCond     47518794     94.04%     94.06% # Number of BP lookups (Count)
system.cpu.branchPred.lookups_0::DirectUncond      3002879      5.94%    100.00% # Number of BP lookups (Count)
system.cpu.branchPred.lookups_0::IndirectCond            0      0.00%    100.00% # Number of BP lookups (Count)
system.cpu.branchPred.lookups_0::IndirectUncond           75      0.00%    100.00% # Number of BP lookups (Count)
system.cpu.branchPred.lookups_0::total       50529187                       # Number of BP lookups (Count)
system.cpu.branchPred.squashes_0::NoBranch            3      0.05%      0.05% # Number of branches that got squashed (completely removed) as an earlier branch was mispredicted. (Count)
system.cpu.branchPred.squashes_0::Return          965     15.97%     16.02% # Number of branches that got squashed (completely removed) as an earlier branch was mispredicted. (Count)
system.cpu.branchPred.squashes_0::CallDirect          552      9.14%     25.16% # Number of branches that got squashed (completely removed) as an earlier branch was mispredicted. (Count)
system.cpu.branchPred.squashes_0::CallIndirect           31      0.51%     25.67% # Number of branches that got squashed (completely removed) as an earlier branch was mispredicted. (Count)
system.cpu.branchPred.squashes_0::DirectCond         3718     61.54%     87.21% # Number of branches that got squashed (completely removed) as an earlier branch was mispredicted. (Count)
system.cpu.branchPred.squashes_0::DirectUncond          771     12.76%     99.97% # Number of branches that got squashed (completely removed) as an earlier branch was mispredicted. (Count)
system.cpu.branchPred.squashes_0::IndirectCond            0      0.00%     99.97% # Number of branches that got squashed (completely removed) as an earlier branch was mispredicted. (Count)
system.cpu.branchPred.squashes_0::IndirectUncond            2      0.03%    100.00% # Number of branches that got squashed (completely removed) as an earlier branch was mispredicted. (Count)
system.cpu.branchPred.squashes_0::total          6042                       # Number of branches that got squashed (completely removed) as an earlier branch was mispredicted. (Count)
system.cpu.branchPred.corrected_0::NoBranch          387     13.06%     13.06% # Number of branches that got corrected but not yet commited. Branches get corrected by decode or after execute. Also a branch misprediction can be detected out-of-order. Therefore, a corrected branch might not end up beeing committed in case an even earlier branch was mispredicted (Count)
system.cpu.branchPred.corrected_0::Return            0      0.00%     13.06% # Number of branches that got corrected but not yet commited. Branches get corrected by decode or after execute. Also a branch misprediction can be detected out-of-order. Therefore, a corrected branch might not end up beeing committed in case an even earlier branch was mispredicted (Count)
system.cpu.branchPred.corrected_0::CallDirect          224      7.56%     20.62% # Number of branches that got corrected but not yet commited. Branches get corrected by decode or after execute. Also a branch misprediction can be detected out-of-order. Therefore, a corrected branch might not end up beeing committed in case an even earlier branch was mispredicted (Count)
system.cpu.branchPred.corrected_0::CallIndirect           28      0.94%     21.57% # Number of branches that got corrected but not yet commited. Branches get corrected by decode or after execute. Also a branch misprediction can be detected out-of-order. Therefore, a corrected branch might not end up beeing committed in case an even earlier branch was mispredicted (Count)
system.cpu.branchPred.corrected_0::DirectCond         2127     71.79%     93.35% # Number of branches that got corrected but not yet commited. Branches get corrected by decode or after execute. Also a branch misprediction can be detected out-of-order. Therefore, a corrected branch might not end up beeing committed in case an even earlier branch was mispredicted (Count)
system.cpu.branchPred.corrected_0::DirectUncond          172      5.80%     99.16% # Number of branches that got corrected but not yet commited. Branches get corrected by decode or after execute. Also a branch misprediction can be detected out-of-order. Therefore, a corrected branch might not end up beeing committed in case an even earlier branch was mispredicted (Count)
system.cpu.branchPred.corrected_0::IndirectCond            0      0.00%     99.16% # Number of branches that got corrected but not yet commited. Branches get corrected by decode or after execute. Also a branch misprediction can be detected out-of-order. Therefore, a corrected branch might not end up beeing committed in case an even earlier branch was mispredicted (Count)
system.cpu.branchPred.corrected_0::IndirectUncond           25      0.84%    100.00% # Number of branches that got corrected but not yet commited. Branches get corrected by decode or after execute. Also a branch misprediction can be detected out-of-order. Therefore, a corrected branch might not end up beeing committed in case an even earlier branch was mispredicted (Count)
system.cpu.branchPred.corrected_0::total         2963                       # Number of branches that got corrected but not yet commited. Branches get corrected by decode or after execute. Also a branch misprediction can be detected out-of-order. Therefore, a corrected branch might not end up beeing committed in case an even earlier branch was mispredicted (Count)
system.cpu.branchPred.earlyResteers_0::NoBranch            0                       # Number of branches that got redirected after decode. (Count)
system.cpu.branchPred.earlyResteers_0::Return            0                       # Number of branches that got redirected after decode. (Count)
system.cpu.branchPred.earlyResteers_0::CallDirect            0                       # Number of branches that got redirected after decode. (Count)
system.cpu.branchPred.earlyResteers_0::CallIndirect            0                       # Number of branches that got redirected after decode. (Count)
system.cpu.branchPred.earlyResteers_0::DirectCond            0                       # Number of branches that got redirected after decode. (Count)
system.cpu.branchPred.earlyResteers_0::DirectUncond            0                       # Number of branches that got redirected after decode. (Count)
system.cpu.branchPred.earlyResteers_0::IndirectCond            0                       # Number of branches that got redirected after decode. (Count)
system.cpu.branchPred.earlyResteers_0::IndirectUncond            0                       # Number of branches that got redirected after decode. (Count)
system.cpu.branchPred.earlyResteers_0::total            0                       # Number of branches that got redirected after decode. (Count)
system.cpu.branchPred.committed_0::NoBranch          387      0.00%      0.00% # Number of branches finally committed  (Count)
system.cpu.branchPred.committed_0::Return         2749      0.01%      0.01% # Number of branches finally committed  (Count)
system.cpu.branchPred.committed_0::CallDirect         2708      0.01%      0.01% # Number of branches finally committed  (Count)
system.cpu.branchPred.committed_0::CallIndirect           42      0.00%      0.01% # Number of branches finally committed  (Count)
system.cpu.branchPred.committed_0::DirectCond     47515075     94.05%     94.06% # Number of branches finally committed  (Count)
system.cpu.branchPred.committed_0::DirectUncond      3002106      5.94%    100.00% # Number of branches finally committed  (Count)
system.cpu.branchPred.committed_0::IndirectCond            0      0.00%    100.00% # Number of branches finally committed  (Count)
system.cpu.branchPred.committed_0::IndirectUncond           73      0.00%    100.00% # Number of branches finally committed  (Count)
system.cpu.branchPred.committed_0::total     50523140                       # Number of branches finally committed  (Count)
system.cpu.branchPred.mispredicted_0::NoBranch          387     13.06%     13.06% # Number of committed branches that were mispredicted. (Count)
system.cpu.branchPred.mispredicted_0::Return            0      0.00%     13.06% # Number of committed branches that were mispredicted. (Count)
system.cpu.branchPred.mispredicted_0::CallDirect          224      7.56%     20.62% # Number of committed branches that were mispredicted. (Count)
system.cpu.branchPred.mispredicted_0::CallIndirect           28      0.94%     21.57% # Number of committed branches that were mispredicted. (Count)
system.cpu.branchPred.mispredicted_0::DirectCond         2127     71.79%     93.35% # Number of committed branches that were mispredicted. (Count)
system.cpu.branchPred.mispredicted_0::DirectUncond          172      5.80%     99.16% # Number of committed branches that were mispredicted. (Count)
system.cpu.branchPred.mispredicted_0::IndirectCond            0      0.00%     99.16% # Number of committed branches that were mispredicted. (Count)
system.cpu.branchPred.mispredicted_0::IndirectUncond           25      0.84%    100.00% # Number of committed branches that were mispredicted. (Count)
system.cpu.branchPred.mispredicted_0::total         2963                       # Number of committed branches that were mispredicted. (Count)
system.cpu.branchPred.mispredictDueToPredictor_0::NoBranch            0      0.00%      0.00% # Number of committed branches that were mispredicted by the predictor. (Count)
system.cpu.branchPred.mispredictDueToPredictor_0::Return            0      0.00%      0.00% # Number of committed branches that were mispredicted by the predictor. (Count)
system.cpu.branchPred.mispredictDueToPredictor_0::CallDirect            0      0.00%      0.00% # Number of committed branches that were mispredicted by the predictor. (Count)
system.cpu.branchPred.mispredictDueToPredictor_0::CallIndirect            0      0.00%      0.00% # Number of committed branches that were mispredicted by the predictor. (Count)
system.cpu.branchPred.mispredictDueToPredictor_0::DirectCond         1495    100.00%    100.00% # Number of committed branches that were mispredicted by the predictor. (Count)
system.cpu.branchPred.mispredictDueToPredictor_0::DirectUncond            0      0.00%    100.00% # Number of committed branches that were mispredicted by the predictor. (Count)
system.cpu.branchPred.mispredictDueToPredictor_0::IndirectCond            0      0.00%    100.00% # Number of committed branches that were mispredicted by the predictor. (Count)
system.cpu.branchPred.mispredictDueToPredictor_0::IndirectUncond            0      0.00%    100.00% # Number of committed branches that were mispredicted by the predictor. (Count)
system.cpu.branchPred.mispredictDueToPredictor_0::total         1495                       # Number of committed branches that were mispredicted by the predictor. (Count)
system.cpu.branchPred.mispredictDueToBTBMiss_0::NoBranch          387     26.36%     26.36% # Number of committed branches that were mispredicted because of a BTB miss. (Count)
system.cpu.branchPred.mispredictDueToBTBMiss_0::Return            0      0.00%     26.36% # Number of committed branches that were mispredicted because of a BTB miss. (Count)
system.cpu.branchPred.mispredictDueToBTBMiss_0::CallDirect          224     15.26%     41.62% # Number of committed branches that were mispredicted because of a BTB miss. (Count)
system.cpu.branchPred.mispredictDueToBTBMiss_0::CallIndirect           28      1.91%     43.53% # Number of committed branches that were mispredicted because of a BTB miss. (Count)
system.cpu.branchPred.mispredictDueToBTBMiss_0::DirectCond          632     43.05%     86.58% # Number of committed branches that were mispredicted because of a BTB miss. (Count)
system.cpu.branchPred.mispredictDueToBTBMiss_0::DirectUncond          172     11.72%     98.30% # Number of committed branches that were mispredicted because of a BTB miss. (Count)
system.cpu.branchPred.mispredictDueToBTBMiss_0::IndirectCond            0      0.00%     98.30% # Number of committed branches that were mispredicted because of a BTB miss. (Count)
system.cpu.branchPred.mispredictDueToBTBMiss_0::IndirectUncond           25      1.70%    100.00% # Number of committed branches that were mispredicted because of a BTB miss. (Count)
system.cpu.branchPred.mispredictDueToBTBMiss_0::total         1468                       # Number of committed branches that were mispredicted because of a BTB miss. (Count)
system.cpu.branchPred.targetProvider_0::NoTarget        14180      0.03%      0.03% # The component providing the target for taken branches (Count)
system.cpu.branchPred.targetProvider_0::BTB     50511244     99.96%     99.99% # The component providing the target for taken branches (Count)
system.cpu.branchPred.targetProvider_0::RAS         3714      0.01%    100.00% # The component providing the target for taken branches (Count)
system.cpu.branchPred.targetProvider_0::Indirect           49      0.00%    100.00% # The component providing the target for taken branches (Count)
system.cpu.branchPred.targetProvider_0::total     50529187                       # The component providing the target for taken branches (Count)
system.cpu.branchPred.targetWrong_0::NoBranch         2065     80.16%     80.16% # Number of branches where the target was incorrect or not available at prediction time. (Count)
system.cpu.branchPred.targetWrong_0::Return          509     19.76%     99.92% # Number of branches where the target was incorrect or not available at prediction time. (Count)
system.cpu.branchPred.targetWrong_0::CallDirect            0      0.00%     99.92% # Number of branches where the target was incorrect or not available at prediction time. (Count)
system.cpu.branchPred.targetWrong_0::CallIndirect            2      0.08%    100.00% # Number of branches where the target was incorrect or not available at prediction time. (Count)
system.cpu.branchPred.targetWrong_0::DirectCond            0      0.00%    100.00% # Number of branches where the target was incorrect or not available at prediction time. (Count)
system.cpu.branchPred.targetWrong_0::DirectUncond            0      0.00%    100.00% # Number of branches where the target was incorrect or not available at prediction time. (Count)
system.cpu.branchPred.targetWrong_0::IndirectCond            0      0.00%    100.00% # Number of branches where the target was incorrect or not available at prediction time. (Count)
system.cpu.branchPred.targetWrong_0::IndirectUncond            0      0.00%    100.00% # Number of branches where the target was incorrect or not available at prediction time. (Count)
system.cpu.branchPred.targetWrong_0::total         2576                       # Number of branches where the target was incorrect or not available at prediction time. (Count)
system.cpu.branchPred.condPredicted          47519185                       # Number of conditional branches predicted (Count)
system.cpu.branchPred.condPredictedTaken     47507959                       # Number of conditional branches predicted as taken (Count)
system.cpu.branchPred.condIncorrect              2963                       # Number of conditional branches incorrect (Count)
system.cpu.branchPred.predTakenBTBMiss            764                       # Number of branches predicted taken but missed in BTB (Count)
system.cpu.branchPred.BTBLookups             50529187                       # Number of BTB lookups (Count)
system.cpu.branchPred.BTBUpdates                 2014                       # Number of BTB updates (Count)
system.cpu.branchPred.BTBHits                50515918                       # Number of BTB hits (Count)
system.cpu.branchPred.BTBHitRatio            0.999737                       # BTB Hit Ratio (Ratio)
system.cpu.branchPred.BTBMispredicted            1028                       # Number BTB mispredictions. No target found or target wrong (Count)
system.cpu.branchPred.indirectLookups             148                       # Number of indirect predictor lookups. (Count)
system.cpu.branchPred.indirectHits                 49                       # Number of indirect target hits. (Count)
system.cpu.branchPred.indirectMisses               99                       # Number of indirect misses. (Count)
system.cpu.branchPred.indirectMispredicted            0                       # Number of mispredicted indirect branches. (Count)
system.cpu.branchPred.btb.lookups::NoBranch          391      0.00%      0.00% # Number of BTB lookups (Count)
system.cpu.branchPred.btb.lookups::Return         3714      0.01%      0.01% # Number of BTB lookups (Count)
system.cpu.branchPred.btb.lookups::CallDirect         3261      0.01%      0.01% # Number of BTB lookups (Count)
system.cpu.branchPred.btb.lookups::CallIndirect           73      0.00%      0.01% # Number of BTB lookups (Count)
system.cpu.branchPred.btb.lookups::DirectCond     47518794     94.04%     94.06% # Number of BTB lookups (Count)
system.cpu.branchPred.btb.lookups::DirectUncond      3002879      5.94%    100.00% # Number of BTB lookups (Count)
system.cpu.branchPred.btb.lookups::IndirectCond            0      0.00%    100.00% # Number of BTB lookups (Count)
system.cpu.branchPred.btb.lookups::IndirectUncond           75      0.00%    100.00% # Number of BTB lookups (Count)
system.cpu.branchPred.btb.lookups::total     50529187                       # Number of BTB lookups (Count)
system.cpu.branchPred.btb.misses::NoBranch          391      2.95%      2.95% # Number of BTB misses (Count)
system.cpu.branchPred.btb.misses::Return         3714     27.99%     30.94% # Number of BTB misses (Count)
system.cpu.branchPred.btb.misses::CallDirect          589      4.44%     35.38% # Number of BTB misses (Count)
system.cpu.branchPred.btb.misses::CallIndirect           73      0.55%     35.93% # Number of BTB misses (Count)
system.cpu.branchPred.btb.misses::DirectCond         7774     58.59%     94.51% # Number of BTB misses (Count)
system.cpu.branchPred.btb.misses::DirectUncond          653      4.92%     99.43% # Number of BTB misses (Count)
system.cpu.branchPred.btb.misses::IndirectCond            0      0.00%     99.43% # Number of BTB misses (Count)
system.cpu.branchPred.btb.misses::IndirectUncond           75      0.57%    100.00% # Number of BTB misses (Count)
system.cpu.branchPred.btb.misses::total         13269                       # Number of BTB misses (Count)
system.cpu.branchPred.btb.updates::NoBranch            0      0.00%      0.00% # Number of BTB updates (Count)
system.cpu.branchPred.btb.updates::Return            0      0.00%      0.00% # Number of BTB updates (Count)
system.cpu.branchPred.btb.updates::CallDirect          224     11.12%     11.12% # Number of BTB updates (Count)
system.cpu.branchPred.btb.updates::CallIndirect            0      0.00%     11.12% # Number of BTB updates (Count)
system.cpu.branchPred.btb.updates::DirectCond         1618     80.34%     91.46% # Number of BTB updates (Count)
system.cpu.branchPred.btb.updates::DirectUncond          172      8.54%    100.00% # Number of BTB updates (Count)
system.cpu.branchPred.btb.updates::IndirectCond            0      0.00%    100.00% # Number of BTB updates (Count)
system.cpu.branchPred.btb.updates::IndirectUncond            0      0.00%    100.00% # Number of BTB updates (Count)
system.cpu.branchPred.btb.updates::total         2014                       # Number of BTB updates (Count)
system.cpu.branchPred.btb.mispredict::NoBranch            0      0.00%      0.00% # Number of BTB mispredictions. No target found or target wrong. (Count)
system.cpu.branchPred.btb.mispredict::Return            0      0.00%      0.00% # Number of BTB mispredictions. No target found or target wrong. (Count)
system.cpu.branchPred.btb.mispredict::CallDirect          224     11.12%     11.12% # Number of BTB mispredictions. No target found or target wrong. (Count)
system.cpu.branchPred.btb.mispredict::CallIndirect            0      0.00%     11.12% # Number of BTB mispredictions. No target found or target wrong. (Count)
system.cpu.branchPred.btb.mispredict::DirectCond         1618     80.34%     91.46% # Number of BTB mispredictions. No target found or target wrong. (Count)
system.cpu.branchPred.btb.mispredict::DirectUncond          172      8.54%    100.00% # Number of BTB mispredictions. No target found or target wrong. (Count)
system.cpu.branchPred.btb.mispredict::IndirectCond            0      0.00%    100.00% # Number of BTB mispredictions. No target found or target wrong. (Count)
system.cpu.branchPred.btb.mispredict::IndirectUncond            0      0.00%    100.00% # Number of BTB mispredictions. No target found or target wrong. (Count)
system.cpu.branchPred.btb.mispredict::total         2014                       # Number of BTB mispredictions. No target found or target wrong. (Count)
system.cpu.branchPred.btb.power_state.pwrStateResidencyTicks::UNDEFINED 1674047892000                       # Cumulative time (in ticks) in various power states (Tick)
system.cpu.branchPred.indirectBranchPred.lookups          148                       # Number of lookups (Count)
system.cpu.branchPred.indirectBranchPred.hits           49                       # Number of hits of a tag (Count)
system.cpu.branchPred.indirectBranchPred.misses           99                       # Number of misses (Count)
system.cpu.branchPred.indirectBranchPred.targetRecords           53                       # Number of targets that where recorded/installed in the cache (Count)
system.cpu.branchPred.indirectBranchPred.indirectRecords          201                       # Number of indirect branches/calls recorded in the indirect hist (Count)
system.cpu.branchPred.indirectBranchPred.speculativeOverflows            1                       # Number of times more than the allowed capacity for speculative branches/calls where in flight and destroy the path history (Count)
system.cpu.branchPred.ras.pushes                 4299                       # Number of times a PC was pushed onto the RAS (Count)
system.cpu.branchPred.ras.pops                   4297                       # Number of times a PC was poped from the RAS (Count)
system.cpu.branchPred.ras.squashes               1548                       # Number of times the stack operation was squashed due to wrong speculation. (Count)
system.cpu.branchPred.ras.used                   2749                       # Number of times the RAS is the provider (Count)
system.cpu.branchPred.ras.correct                2749                       # Number of times the RAS is the provider and the prediction is correct (Count)
system.cpu.branchPred.ras.incorrect                 0                       # Number of times the RAS is the provider and the prediction is wrong (Count)
system.cpu.commitStats0.numInsts           1071113131                       # Number of instructions committed (thread level) (Count)
system.cpu.commitStats0.numOps             1071113131                       # Number of ops (including micro ops) committed (thread level) (Count)
system.cpu.commitStats0.numInstsNotNOP              0                       # Number of instructions committed excluding NOPs or prefetches (Count)
system.cpu.commitStats0.numOpsNotNOP                0                       # Number of Ops (including micro ops) Simulated (Count)
system.cpu.commitStats0.cpi                  1.562905                       # CPI: cycles per instruction (thread level) ((Cycle/Count))
system.cpu.commitStats0.ipc                  0.639834                       # IPC: instructions per cycle (thread level) ((Count/Cycle))
system.cpu.commitStats0.numMemRefs                  0                       # Number of memory references committed (Count)
system.cpu.commitStats0.numFpInsts                  0                       # Number of float instructions (Count)
system.cpu.commitStats0.numIntInsts                 0                       # Number of integer instructions (Count)
system.cpu.commitStats0.numLoadInsts                0                       # Number of load instructions (Count)
system.cpu.commitStats0.numStoreInsts               0                       # Number of store instructions (Count)
system.cpu.commitStats0.numVecInsts                 0                       # Number of vector instructions (Count)
system.cpu.commitStats0.committedInstType::No_OpClass          598      0.00%      0.00% # Class of committed instruction. (Count)
system.cpu.commitStats0.committedInstType::IntAlu    627075750     58.54%     58.54% # Class of committed instruction. (Count)
system.cpu.commitStats0.committedInstType::IntMult          502      0.00%     58.54% # Class of committed instruction. (Count)
system.cpu.commitStats0.committedInstType::IntDiv           80      0.00%     58.54% # Class of committed instruction. (Count)
system.cpu.commitStats0.committedInstType::FloatAdd     30000738      2.80%     61.35% # Class of committed instruction. (Count)
system.cpu.commitStats0.committedInstType::FloatCmp      3000370      0.28%     61.63% # Class of committed instruction. (Count)
system.cpu.commitStats0.committedInstType::FloatCvt      3000923      0.28%     61.91% # Class of committed instruction. (Count)
system.cpu.commitStats0.committedInstType::FloatMult     20000401      1.87%     63.77% # Class of committed instruction. (Count)
system.cpu.commitStats0.committedInstType::FloatMultAcc           43      0.00%     63.77% # Class of committed instruction. (Count)
system.cpu.commitStats0.committedInstType::FloatDiv           18      0.00%     63.77% # Class of committed instruction. (Count)
system.cpu.commitStats0.committedInstType::FloatMisc          431      0.00%     63.77% # Class of committed instruction. (Count)
system.cpu.commitStats0.committedInstType::FloatSqrt            0      0.00%     63.77% # Class of committed instruction. (Count)
system.cpu.commitStats0.committedInstType::SimdAdd            0      0.00%     63.77% # Class of committed instruction. (Count)
system.cpu.commitStats0.committedInstType::SimdAddAcc            0      0.00%     63.77% # Class of committed instruction. (Count)
system.cpu.commitStats0.committedInstType::SimdAlu            0      0.00%     63.77% # Class of committed instruction. (Count)
system.cpu.commitStats0.committedInstType::SimdCmp            0      0.00%     63.77% # Class of committed instruction. (Count)
system.cpu.commitStats0.committedInstType::SimdCvt            0      0.00%     63.77% # Class of committed instruction. (Count)
system.cpu.commitStats0.committedInstType::SimdMisc            0      0.00%     63.77% # Class of committed instruction. (Count)
system.cpu.commitStats0.committedInstType::SimdMult            0      0.00%     63.77% # Class of committed instruction. (Count)
system.cpu.commitStats0.committedInstType::SimdMultAcc            0      0.00%     63.77% # Class of committed instruction. (Count)
system.cpu.commitStats0.committedInstType::SimdMatMultAcc            0      0.00%     63.77% # Class of committed instruction. (Count)
system.cpu.commitStats0.committedInstType::SimdShift            0      0.00%     63.77% # Class of committed instruction. (Count)
system.cpu.commitStats0.committedInstType::SimdShiftAcc            0      0.00%     63.77% # Class of committed instruction. (Count)
system.cpu.commitStats0.committedInstType::SimdDiv            0      0.00%     63.77% # Class of committed instruction. (Count)
system.cpu.commitStats0.committedInstType::SimdSqrt            0      0.00%     63.77% # Class of committed instruction. (Count)
system.cpu.commitStats0.committedInstType::SimdFloatAdd            0      0.00%     63.77% # Class of committed instruction. (Count)
system.cpu.commitStats0.committedInstType::SimdFloatAlu            0      0.00%     63.77% # Class of committed instruction. (Count)
system.cpu.commitStats0.committedInstType::SimdFloatCmp            0      0.00%     63.77% # Class of committed instruction. (Count)
system.cpu.commitStats0.committedInstType::SimdFloatCvt            0      0.00%     63.77% # Class of committed instruction. (Count)
system.cpu.commitStats0.committedInstType::SimdFloatDiv            0      0.00%     63.77% # Class of committed instruction. (Count)
system.cpu.commitStats0.committedInstType::SimdFloatMisc            0      0.00%     63.77% # Class of committed instruction. (Count)
system.cpu.commitStats0.committedInstType::SimdFloatMult            0      0.00%     63.77% # Class of committed instruction. (Count)
system.cpu.commitStats0.committedInstType::SimdFloatMultAcc            0      0.00%     63.77% # Class of committed instruction. (Count)
system.cpu.commitStats0.committedInstType::SimdFloatMatMultAcc            0      0.00%     63.77% # Class of committed instruction. (Count)
system.cpu.commitStats0.committedInstType::SimdFloatSqrt            0      0.00%     63.77% # Class of committed instruction. (Count)
system.cpu.commitStats0.committedInstType::SimdReduceAdd            0      0.00%     63.77% # Class of committed instruction. (Count)
system.cpu.commitStats0.committedInstType::SimdReduceAlu            0      0.00%     63.77% # Class of committed instruction. (Count)
system.cpu.commitStats0.committedInstType::SimdReduceCmp            0      0.00%     63.77% # Class of committed instruction. (Count)
system.cpu.commitStats0.committedInstType::SimdFloatReduceAdd            0      0.00%     63.77% # Class of committed instruction. (Count)
system.cpu.commitStats0.committedInstType::SimdFloatReduceCmp            0      0.00%     63.77% # Class of committed instruction. (Count)
system.cpu.commitStats0.committedInstType::SimdAes            0      0.00%     63.77% # Class of committed instruction. (Count)
system.cpu.commitStats0.committedInstType::SimdAesMix            0      0.00%     63.77% # Class of committed instruction. (Count)
system.cpu.commitStats0.committedInstType::SimdSha1Hash            0      0.00%     63.77% # Class of committed instruction. (Count)
system.cpu.commitStats0.committedInstType::SimdSha1Hash2            0      0.00%     63.77% # Class of committed instruction. (Count)
system.cpu.commitStats0.committedInstType::SimdSha256Hash            0      0.00%     63.77% # Class of committed instruction. (Count)
system.cpu.commitStats0.committedInstType::SimdSha256Hash2            0      0.00%     63.77% # Class of committed instruction. (Count)
system.cpu.commitStats0.committedInstType::SimdShaSigma2            0      0.00%     63.77% # Class of committed instruction. (Count)
system.cpu.commitStats0.committedInstType::SimdShaSigma3            0      0.00%     63.77% # Class of committed instruction. (Count)
system.cpu.commitStats0.committedInstType::SimdPredAlu            0      0.00%     63.77% # Class of committed instruction. (Count)
system.cpu.commitStats0.committedInstType::Matrix            0      0.00%     63.77% # Class of committed instruction. (Count)
system.cpu.commitStats0.committedInstType::MatrixMov            0      0.00%     63.77% # Class of committed instruction. (Count)
system.cpu.commitStats0.committedInstType::MatrixOP            0      0.00%     63.77% # Class of committed instruction. (Count)
system.cpu.commitStats0.committedInstType::MemRead    197017909     18.39%     82.17% # Class of committed instruction. (Count)
system.cpu.commitStats0.committedInstType::MemWrite     47013038      4.39%     86.56% # Class of committed instruction. (Count)
system.cpu.commitStats0.committedInstType::FloatMemRead     98001780      9.15%     95.71% # Class of committed instruction. (Count)
system.cpu.commitStats0.committedInstType::FloatMemWrite     46000550      4.29%    100.00% # Class of committed instruction. (Count)
system.cpu.commitStats0.committedInstType::IprAccess            0      0.00%    100.00% # Class of committed instruction. (Count)
system.cpu.commitStats0.committedInstType::InstPrefetch            0      0.00%    100.00% # Class of committed instruction. (Count)
system.cpu.commitStats0.committedInstType::SimdUnitStrideLoad            0      0.00%    100.00% # Class of committed instruction. (Count)
system.cpu.commitStats0.committedInstType::SimdUnitStrideStore            0      0.00%    100.00% # Class of committed instruction. (Count)
system.cpu.commitStats0.committedInstType::SimdUnitStrideMaskLoad            0      0.00%    100.00% # Class of committed instruction. (Count)
system.cpu.commitStats0.committedInstType::SimdUnitStrideMaskStore            0      0.00%    100.00% # Class of committed instruction. (Count)
system.cpu.commitStats0.committedInstType::SimdStridedLoad            0      0.00%    100.00% # Class of committed instruction. (Count)
system.cpu.commitStats0.committedInstType::SimdStridedStore            0      0.00%    100.00% # Class of committed instruction. (Count)
system.cpu.commitStats0.committedInstType::SimdIndexedLoad            0      0.00%    100.00% # Class of committed instruction. (Count)
system.cpu.commitStats0.committedInstType::SimdIndexedStore            0      0.00%    100.00% # Class of committed instruction. (Count)
system.cpu.commitStats0.committedInstType::SimdWholeRegisterLoad            0      0.00%    100.00% # Class of committed instruction. (Count)
system.cpu.commitStats0.committedInstType::SimdWholeRegisterStore            0      0.00%    100.00% # Class of committed instruction. (Count)
system.cpu.commitStats0.committedInstType::SimdUnitStrideFaultOnlyFirstLoad            0      0.00%    100.00% # Class of committed instruction. (Count)
system.cpu.commitStats0.committedInstType::SimdUnitStrideSegmentedLoad            0      0.00%    100.00% # Class of committed instruction. (Count)
system.cpu.commitStats0.committedInstType::SimdUnitStrideSegmentedStore            0      0.00%    100.00% # Class of committed instruction. (Count)
system.cpu.commitStats0.committedInstType::SimdUnitStrideSegmentedFaultOnlyFirstLoad            0      0.00%    100.00% # Class of committed instruction. (Count)
system.cpu.commitStats0.committedInstType::SimdStrideSegmentedLoad            0      0.00%    100.00% # Class of committed instruction. (Count)
system.cpu.commitStats0.committedInstType::SimdStrideSegmentedStore            0      0.00%    100.00% # Class of committed instruction. (Count)
system.cpu.commitStats0.committedInstType::SimdExt            0      0.00%    100.00% # Class of committed instruction. (Count)
system.cpu.commitStats0.committedInstType::SimdFloatExt            0      0.00%    100.00% # Class of committed instruction. (Count)
system.cpu.commitStats0.committedInstType::SimdConfig            0      0.00%    100.00% # Class of committed instruction. (Count)
system.cpu.commitStats0.committedInstType::total   1071113131                       # Class of committed instruction. (Count)
system.cpu.dcache.demandHits::cpu.data      330818132                       # number of demand (read+write) hits (Count)
system.cpu.dcache.demandHits::total         330818132                       # number of demand (read+write) hits (Count)
system.cpu.dcache.overallHits::cpu.data     330818132                       # number of overall hits (Count)
system.cpu.dcache.overallHits::total        330818132                       # number of overall hits (Count)
system.cpu.dcache.demandMisses::cpu.data     14209668                       # number of demand (read+write) misses (Count)
system.cpu.dcache.demandMisses::total        14209668                       # number of demand (read+write) misses (Count)
system.cpu.dcache.overallMisses::cpu.data     14209668                       # number of overall misses (Count)
system.cpu.dcache.overallMisses::total       14209668                       # number of overall misses (Count)
system.cpu.dcache.demandMissLatency::cpu.data 223631934000                       # number of demand (read+write) miss ticks (Tick)
system.cpu.dcache.demandMissLatency::total 223631934000                       # number of demand (read+write) miss ticks (Tick)
system.cpu.dcache.overallMissLatency::cpu.data 223631934000                       # number of overall miss ticks (Tick)
system.cpu.dcache.overallMissLatency::total 223631934000                       # number of overall miss ticks (Tick)
system.cpu.dcache.demandAccesses::cpu.data    345027800                       # number of demand (read+write) accesses (Count)
system.cpu.dcache.demandAccesses::total     345027800                       # number of demand (read+write) accesses (Count)
system.cpu.dcache.overallAccesses::cpu.data    345027800                       # number of overall (read+write) accesses (Count)
system.cpu.dcache.overallAccesses::total    345027800                       # number of overall (read+write) accesses (Count)
system.cpu.dcache.demandMissRate::cpu.data     0.041184                       # miss rate for demand accesses (Ratio)
system.cpu.dcache.demandMissRate::total      0.041184                       # miss rate for demand accesses (Ratio)
system.cpu.dcache.overallMissRate::cpu.data     0.041184                       # miss rate for overall accesses (Ratio)
system.cpu.dcache.overallMissRate::total     0.041184                       # miss rate for overall accesses (Ratio)
system.cpu.dcache.demandAvgMissLatency::cpu.data 15738.012598                       # average overall miss latency in ticks ((Tick/Count))
system.cpu.dcache.demandAvgMissLatency::total 15738.012598                       # average overall miss latency in ticks ((Tick/Count))
system.cpu.dcache.overallAvgMissLatency::cpu.data 15738.012598                       # average overall miss latency ((Tick/Count))
system.cpu.dcache.overallAvgMissLatency::total 15738.012598                       # average overall miss latency ((Tick/Count))
system.cpu.dcache.blockedCycles::no_mshrs            0                       # number of cycles access was blocked (Cycle)
system.cpu.dcache.blockedCycles::no_targets            0                       # number of cycles access was blocked (Cycle)
system.cpu.dcache.blockedCauses::no_mshrs            0                       # number of times access was blocked (Count)
system.cpu.dcache.blockedCauses::no_targets            0                       # number of times access was blocked (Count)
system.cpu.dcache.avgBlocked::no_mshrs            nan                       # average number of cycles each access was blocked ((Cycle/Count))
system.cpu.dcache.avgBlocked::no_targets          nan                       # average number of cycles each access was blocked ((Cycle/Count))
system.cpu.dcache.writebacks::writebacks      5875327                       # number of writebacks (Count)
system.cpu.dcache.writebacks::total           5875327                       # number of writebacks (Count)
system.cpu.dcache.demandMshrHits::cpu.data       459127                       # number of demand (read+write) MSHR hits (Count)
system.cpu.dcache.demandMshrHits::total        459127                       # number of demand (read+write) MSHR hits (Count)
system.cpu.dcache.overallMshrHits::cpu.data       459127                       # number of overall MSHR hits (Count)
system.cpu.dcache.overallMshrHits::total       459127                       # number of overall MSHR hits (Count)
system.cpu.dcache.demandMshrMisses::cpu.data     13750541                       # number of demand (read+write) MSHR misses (Count)
system.cpu.dcache.demandMshrMisses::total     13750541                       # number of demand (read+write) MSHR misses (Count)
system.cpu.dcache.overallMshrMisses::cpu.data     13750541                       # number of overall MSHR misses (Count)
system.cpu.dcache.overallMshrMisses::total     13750541                       # number of overall MSHR misses (Count)
system.cpu.dcache.demandMshrMissLatency::cpu.data 190163950000                       # number of demand (read+write) MSHR miss ticks (Tick)
system.cpu.dcache.demandMshrMissLatency::total 190163950000                       # number of demand (read+write) MSHR miss ticks (Tick)
system.cpu.dcache.overallMshrMissLatency::cpu.data 190163950000                       # number of overall MSHR miss ticks (Tick)
system.cpu.dcache.overallMshrMissLatency::total 190163950000                       # number of overall MSHR miss ticks (Tick)
system.cpu.dcache.demandMshrMissRate::cpu.data     0.039853                       # mshr miss ratio for demand accesses (Ratio)
system.cpu.dcache.demandMshrMissRate::total     0.039853                       # mshr miss ratio for demand accesses (Ratio)
system.cpu.dcache.overallMshrMissRate::cpu.data     0.039853                       # mshr miss ratio for overall accesses (Ratio)
system.cpu.dcache.overallMshrMissRate::total     0.039853                       # mshr miss ratio for overall accesses (Ratio)
system.cpu.dcache.demandAvgMshrMissLatency::cpu.data 13829.561324                       # average overall mshr miss latency ((Tick/Count))
system.cpu.dcache.demandAvgMshrMissLatency::total 13829.561324                       # average overall mshr miss latency ((Tick/Count))
system.cpu.dcache.overallAvgMshrMissLatency::cpu.data 13829.561324                       # average overall mshr miss latency ((Tick/Count))
system.cpu.dcache.overallAvgMshrMissLatency::total 13829.561324                       # average overall mshr miss latency ((Tick/Count))
system.cpu.dcache.replacements               13749517                       # number of replacements (Count)
system.cpu.dcache.ReadReq.hits::cpu.data    244013904                       # number of ReadReq hits (Count)
system.cpu.dcache.ReadReq.hits::total       244013904                       # number of ReadReq hits (Count)
system.cpu.dcache.ReadReq.misses::cpu.data      8000309                       # number of ReadReq misses (Count)
system.cpu.dcache.ReadReq.misses::total       8000309                       # number of ReadReq misses (Count)
system.cpu.dcache.ReadReq.missLatency::cpu.data 117891912000                       # number of ReadReq miss ticks (Tick)
system.cpu.dcache.ReadReq.missLatency::total 117891912000                       # number of ReadReq miss ticks (Tick)
system.cpu.dcache.ReadReq.accesses::cpu.data    252014213                       # number of ReadReq accesses(hits+misses) (Count)
system.cpu.dcache.ReadReq.accesses::total    252014213                       # number of ReadReq accesses(hits+misses) (Count)
system.cpu.dcache.ReadReq.missRate::cpu.data     0.031745                       # miss rate for ReadReq accesses (Ratio)
system.cpu.dcache.ReadReq.missRate::total     0.031745                       # miss rate for ReadReq accesses (Ratio)
system.cpu.dcache.ReadReq.avgMissLatency::cpu.data 14735.919825                       # average ReadReq miss latency ((Tick/Count))
system.cpu.dcache.ReadReq.avgMissLatency::total 14735.919825                       # average ReadReq miss latency ((Tick/Count))
system.cpu.dcache.ReadReq.mshrHits::cpu.data            2                       # number of ReadReq MSHR hits (Count)
system.cpu.dcache.ReadReq.mshrHits::total            2                       # number of ReadReq MSHR hits (Count)
system.cpu.dcache.ReadReq.mshrMisses::cpu.data      8000307                       # number of ReadReq MSHR misses (Count)
system.cpu.dcache.ReadReq.mshrMisses::total      8000307                       # number of ReadReq MSHR misses (Count)
system.cpu.dcache.ReadReq.mshrMissLatency::cpu.data 109891580000                       # number of ReadReq MSHR miss ticks (Tick)
system.cpu.dcache.ReadReq.mshrMissLatency::total 109891580000                       # number of ReadReq MSHR miss ticks (Tick)
system.cpu.dcache.ReadReq.mshrMissRate::cpu.data     0.031745                       # mshr miss rate for ReadReq accesses (Ratio)
system.cpu.dcache.ReadReq.mshrMissRate::total     0.031745                       # mshr miss rate for ReadReq accesses (Ratio)
system.cpu.dcache.ReadReq.avgMshrMissLatency::cpu.data 13735.920384                       # average ReadReq mshr miss latency ((Tick/Count))
system.cpu.dcache.ReadReq.avgMshrMissLatency::total 13735.920384                       # average ReadReq mshr miss latency ((Tick/Count))
system.cpu.dcache.WriteReq.hits::cpu.data     86804228                       # number of WriteReq hits (Count)
system.cpu.dcache.WriteReq.hits::total       86804228                       # number of WriteReq hits (Count)
system.cpu.dcache.WriteReq.misses::cpu.data      6209359                       # number of WriteReq misses (Count)
system.cpu.dcache.WriteReq.misses::total      6209359                       # number of WriteReq misses (Count)
system.cpu.dcache.WriteReq.missLatency::cpu.data 105740022000                       # number of WriteReq miss ticks (Tick)
system.cpu.dcache.WriteReq.missLatency::total 105740022000                       # number of WriteReq miss ticks (Tick)
system.cpu.dcache.WriteReq.accesses::cpu.data     93013587                       # number of WriteReq accesses(hits+misses) (Count)
system.cpu.dcache.WriteReq.accesses::total     93013587                       # number of WriteReq accesses(hits+misses) (Count)
system.cpu.dcache.WriteReq.missRate::cpu.data     0.066758                       # miss rate for WriteReq accesses (Ratio)
system.cpu.dcache.WriteReq.missRate::total     0.066758                       # miss rate for WriteReq accesses (Ratio)
system.cpu.dcache.WriteReq.avgMissLatency::cpu.data 17029.136502                       # average WriteReq miss latency ((Tick/Count))
system.cpu.dcache.WriteReq.avgMissLatency::total 17029.136502                       # average WriteReq miss latency ((Tick/Count))
system.cpu.dcache.WriteReq.mshrHits::cpu.data       459125                       # number of WriteReq MSHR hits (Count)
system.cpu.dcache.WriteReq.mshrHits::total       459125                       # number of WriteReq MSHR hits (Count)
system.cpu.dcache.WriteReq.mshrMisses::cpu.data      5750234                       # number of WriteReq MSHR misses (Count)
system.cpu.dcache.WriteReq.mshrMisses::total      5750234                       # number of WriteReq MSHR misses (Count)
system.cpu.dcache.WriteReq.mshrMissLatency::cpu.data  80272370000                       # number of WriteReq MSHR miss ticks (Tick)
system.cpu.dcache.WriteReq.mshrMissLatency::total  80272370000                       # number of WriteReq MSHR miss ticks (Tick)
system.cpu.dcache.WriteReq.mshrMissRate::cpu.data     0.061821                       # mshr miss rate for WriteReq accesses (Ratio)
system.cpu.dcache.WriteReq.mshrMissRate::total     0.061821                       # mshr miss rate for WriteReq accesses (Ratio)
system.cpu.dcache.WriteReq.avgMshrMissLatency::cpu.data 13959.844069                       # average WriteReq mshr miss latency ((Tick/Count))
system.cpu.dcache.WriteReq.avgMshrMissLatency::total 13959.844069                       # average WriteReq mshr miss latency ((Tick/Count))
system.cpu.dcache.power_state.pwrStateResidencyTicks::UNDEFINED 1674047892000                       # Cumulative time (in ticks) in various power states (Tick)
system.cpu.dcache.tags.tagsInUse          1023.986528                       # Average ticks per tags in use ((Tick/Count))
system.cpu.dcache.tags.totalRefs            344568673                       # Total number of references to valid blocks. (Count)
system.cpu.dcache.tags.sampledRefs           13750541                       # Sample count of references to valid blocks. (Count)
system.cpu.dcache.tags.avgRefs              25.058554                       # Average number of references to valid blocks. ((Count/Count))
system.cpu.dcache.tags.warmupTick              589000                       # The tick when the warmup percentage was hit. (Tick)
system.cpu.dcache.tags.occupancies::cpu.data  1023.986528                       # Average occupied blocks per tick, per requestor ((Count/Tick))
system.cpu.dcache.tags.avgOccs::cpu.data     0.999987                       # Average percentage of cache occupancy ((Ratio/Tick))
system.cpu.dcache.tags.avgOccs::total        0.999987                       # Average percentage of cache occupancy ((Ratio/Tick))
system.cpu.dcache.tags.occupanciesTaskId::1024         1024                       # Occupied blocks per task id (Count)
system.cpu.dcache.tags.ageTaskId_1024::0           23                       # Occupied blocks per task id, per block age (Count)
system.cpu.dcache.tags.ageTaskId_1024::1          286                       # Occupied blocks per task id, per block age (Count)
system.cpu.dcache.tags.ageTaskId_1024::2          713                       # Occupied blocks per task id, per block age (Count)
system.cpu.dcache.tags.ageTaskId_1024::4            2                       # Occupied blocks per task id, per block age (Count)
system.cpu.dcache.tags.ratioOccsTaskId::1024            1                       # Ratio of occupied blocks and all blocks, per task id (Ratio)
system.cpu.dcache.tags.tagAccesses        11054640141                       # Number of tag accesses (Count)
system.cpu.dcache.tags.dataAccesses       11054640141                       # Number of data accesses (Count)
system.cpu.dcache.tags.power_state.pwrStateResidencyTicks::UNDEFINED 1674047892000                       # Cumulative time (in ticks) in various power states (Tick)
system.cpu.executeStats0.numInsts                   0                       # Number of executed instructions (Count)
system.cpu.executeStats0.numNop                     0                       # Number of nop insts executed (Count)
system.cpu.executeStats0.numBranches                0                       # Number of branches executed (Count)
system.cpu.executeStats0.numLoadInsts               0                       # Number of load instructions executed (Count)
system.cpu.executeStats0.numStoreInsts              0                       # Number of stores executed (Count)
system.cpu.executeStats0.instRate                   0                       # Inst execution rate ((Count/Cycle))
system.cpu.executeStats0.numFpRegWrites             0                       # Number of times the floating registers were written (Count)
system.cpu.executeStats0.numMemRefs                 0                       # Number of memory refs (Count)
system.cpu.executeStats0.numVecAluAccesses            0                       # Number of vector alu accesses (Count)
system.cpu.executeStats0.numDiscardedOps         8229                       # Number of ops (including micro ops) which were discarded before commit (Count)
system.cpu.fetch2.intInstructions           624094814                       # Number of integer instructions successfully decoded (Count)
system.cpu.fetch2.fpInstructions             56003416                       # Number of floating point instructions successfully decoded (Count)
system.cpu.fetch2.vecInstructions                   0                       # Number of SIMD instructions successfully decoded (Count)
system.cpu.fetch2.loadInstructions          295025012                       # Number of memory load instructions successfully decoded (Count)
system.cpu.fetch2.storeInstructions          93016281                       # Number of memory store instructions successfully decoded (Count)
system.cpu.fetch2.amoInstructions                   0                       # Number of memory atomic instructions successfully decoded (Count)
system.cpu.fetchStats0.numInsts                     0                       # Number of instructions fetched (thread level) (Count)
system.cpu.fetchStats0.numOps                       0                       # Number of ops (including micro ops) fetched (thread level) (Count)
system.cpu.fetchStats0.fetchRate                    0                       # Number of inst fetches per cycle ((Count/Cycle))
system.cpu.fetchStats0.branchRate                   0                       # Number of branch fetches per cycle (Ratio)
system.cpu.fetchStats0.numFetchSuspends             0                       # Number of times Execute suspended instruction fetching (Count)
system.cpu.icache.demandHits::cpu.inst      203029117                       # number of demand (read+write) hits (Count)
system.cpu.icache.demandHits::total         203029117                       # number of demand (read+write) hits (Count)
system.cpu.icache.overallHits::cpu.inst     203029117                       # number of overall hits (Count)
system.cpu.icache.overallHits::total        203029117                       # number of overall hits (Count)
system.cpu.icache.demandMisses::cpu.inst          440                       # number of demand (read+write) misses (Count)
system.cpu.icache.demandMisses::total             440                       # number of demand (read+write) misses (Count)
system.cpu.icache.overallMisses::cpu.inst          440                       # number of overall misses (Count)
system.cpu.icache.overallMisses::total            440                       # number of overall misses (Count)
system.cpu.icache.demandMissLatency::cpu.inst     17641000                       # number of demand (read+write) miss ticks (Tick)
system.cpu.icache.demandMissLatency::total     17641000                       # number of demand (read+write) miss ticks (Tick)
system.cpu.icache.overallMissLatency::cpu.inst     17641000                       # number of overall miss ticks (Tick)
system.cpu.icache.overallMissLatency::total     17641000                       # number of overall miss ticks (Tick)
system.cpu.icache.demandAccesses::cpu.inst    203029557                       # number of demand (read+write) accesses (Count)
system.cpu.icache.demandAccesses::total     203029557                       # number of demand (read+write) accesses (Count)
system.cpu.icache.overallAccesses::cpu.inst    203029557                       # number of overall (read+write) accesses (Count)
system.cpu.icache.overallAccesses::total    203029557                       # number of overall (read+write) accesses (Count)
system.cpu.icache.demandMissRate::cpu.inst     0.000002                       # miss rate for demand accesses (Ratio)
system.cpu.icache.demandMissRate::total      0.000002                       # miss rate for demand accesses (Ratio)
system.cpu.icache.overallMissRate::cpu.inst     0.000002                       # miss rate for overall accesses (Ratio)
system.cpu.icache.overallMissRate::total     0.000002                       # miss rate for overall accesses (Ratio)
system.cpu.icache.demandAvgMissLatency::cpu.inst 40093.181818                       # average overall miss latency in ticks ((Tick/Count))
system.cpu.icache.demandAvgMissLatency::total 40093.181818                       # average overall miss latency in ticks ((Tick/Count))
system.cpu.icache.overallAvgMissLatency::cpu.inst 40093.181818                       # average overall miss latency ((Tick/Count))
system.cpu.icache.overallAvgMissLatency::total 40093.181818                       # average overall miss latency ((Tick/Count))
system.cpu.icache.blockedCycles::no_mshrs            0                       # number of cycles access was blocked (Cycle)
system.cpu.icache.blockedCycles::no_targets            0                       # number of cycles access was blocked (Cycle)
system.cpu.icache.blockedCauses::no_mshrs            0                       # number of times access was blocked (Count)
system.cpu.icache.blockedCauses::no_targets            0                       # number of times access was blocked (Count)
system.cpu.icache.avgBlocked::no_mshrs            nan                       # average number of cycles each access was blocked ((Cycle/Count))
system.cpu.icache.avgBlocked::no_targets          nan                       # average number of cycles each access was blocked ((Cycle/Count))
system.cpu.icache.demandMshrMisses::cpu.inst          440                       # number of demand (read+write) MSHR misses (Count)
system.cpu.icache.demandMshrMisses::total          440                       # number of demand (read+write) MSHR misses (Count)
system.cpu.icache.overallMshrMisses::cpu.inst          440                       # number of overall MSHR misses (Count)
system.cpu.icache.overallMshrMisses::total          440                       # number of overall MSHR misses (Count)
system.cpu.icache.demandMshrMissLatency::cpu.inst     17201000                       # number of demand (read+write) MSHR miss ticks (Tick)
system.cpu.icache.demandMshrMissLatency::total     17201000                       # number of demand (read+write) MSHR miss ticks (Tick)
system.cpu.icache.overallMshrMissLatency::cpu.inst     17201000                       # number of overall MSHR miss ticks (Tick)
system.cpu.icache.overallMshrMissLatency::total     17201000                       # number of overall MSHR miss ticks (Tick)
system.cpu.icache.demandMshrMissRate::cpu.inst     0.000002                       # mshr miss ratio for demand accesses (Ratio)
system.cpu.icache.demandMshrMissRate::total     0.000002                       # mshr miss ratio for demand accesses (Ratio)
system.cpu.icache.overallMshrMissRate::cpu.inst     0.000002                       # mshr miss ratio for overall accesses (Ratio)
system.cpu.icache.overallMshrMissRate::total     0.000002                       # mshr miss ratio for overall accesses (Ratio)
system.cpu.icache.demandAvgMshrMissLatency::cpu.inst 39093.181818                       # average overall mshr miss latency ((Tick/Count))
system.cpu.icache.demandAvgMshrMissLatency::total 39093.181818                       # average overall mshr miss latency ((Tick/Count))
system.cpu.icache.overallAvgMshrMissLatency::cpu.inst 39093.181818                       # average overall mshr miss latency ((Tick/Count))
system.cpu.icache.overallAvgMshrMissLatency::total 39093.181818                       # average overall mshr miss latency ((Tick/Count))
system.cpu.icache.replacements                     14                       # number of replacements (Count)
system.cpu.icache.ReadReq.hits::cpu.inst    203029117                       # number of ReadReq hits (Count)
system.cpu.icache.ReadReq.hits::total       203029117                       # number of ReadReq hits (Count)
system.cpu.icache.ReadReq.misses::cpu.inst          440                       # number of ReadReq misses (Count)
system.cpu.icache.ReadReq.misses::total           440                       # number of ReadReq misses (Count)
system.cpu.icache.ReadReq.missLatency::cpu.inst     17641000                       # number of ReadReq miss ticks (Tick)
system.cpu.icache.ReadReq.missLatency::total     17641000                       # number of ReadReq miss ticks (Tick)
system.cpu.icache.ReadReq.accesses::cpu.inst    203029557                       # number of ReadReq accesses(hits+misses) (Count)
system.cpu.icache.ReadReq.accesses::total    203029557                       # number of ReadReq accesses(hits+misses) (Count)
system.cpu.icache.ReadReq.missRate::cpu.inst     0.000002                       # miss rate for ReadReq accesses (Ratio)
system.cpu.icache.ReadReq.missRate::total     0.000002                       # miss rate for ReadReq accesses (Ratio)
system.cpu.icache.ReadReq.avgMissLatency::cpu.inst 40093.181818                       # average ReadReq miss latency ((Tick/Count))
system.cpu.icache.ReadReq.avgMissLatency::total 40093.181818                       # average ReadReq miss latency ((Tick/Count))
system.cpu.icache.ReadReq.mshrMisses::cpu.inst          440                       # number of ReadReq MSHR misses (Count)
system.cpu.icache.ReadReq.mshrMisses::total          440                       # number of ReadReq MSHR misses (Count)
system.cpu.icache.ReadReq.mshrMissLatency::cpu.inst     17201000                       # number of ReadReq MSHR miss ticks (Tick)
system.cpu.icache.ReadReq.mshrMissLatency::total     17201000                       # number of ReadReq MSHR miss ticks (Tick)
system.cpu.icache.ReadReq.mshrMissRate::cpu.inst     0.000002                       # mshr miss rate for ReadReq accesses (Ratio)
system.cpu.icache.ReadReq.mshrMissRate::total     0.000002                       # mshr miss rate for ReadReq accesses (Ratio)
system.cpu.icache.ReadReq.avgMshrMissLatency::cpu.inst 39093.181818                       # average ReadReq mshr miss latency ((Tick/Count))
system.cpu.icache.ReadReq.avgMshrMissLatency::total 39093.181818                       # average ReadReq mshr miss latency ((Tick/Count))
system.cpu.icache.power_state.pwrStateResidencyTicks::UNDEFINED 1674047892000                       # Cumulative time (in ticks) in various power states (Tick)
system.cpu.icache.tags.tagsInUse           366.091019                       # Average ticks per tags in use ((Tick/Count))
system.cpu.icache.tags.totalRefs            203029557                       # Total number of references to valid blocks. (Count)
system.cpu.icache.tags.sampledRefs                440                       # Sample count of references to valid blocks. (Count)
system.cpu.icache.tags.avgRefs           461430.811364                       # Average number of references to valid blocks. ((Count/Count))
system.cpu.icache.tags.warmupTick              173000                       # The tick when the warmup percentage was hit. (Tick)
system.cpu.icache.tags.occupancies::cpu.inst   366.091019                       # Average occupied blocks per tick, per requestor ((Count/Tick))
system.cpu.icache.tags.avgOccs::cpu.inst     0.715022                       # Average percentage of cache occupancy ((Ratio/Tick))
system.cpu.icache.tags.avgOccs::total        0.715022                       # Average percentage of cache occupancy ((Ratio/Tick))
system.cpu.icache.tags.occupanciesTaskId::1024          426                       # Occupied blocks per task id (Count)
system.cpu.icache.tags.ageTaskId_1024::0           30                       # Occupied blocks per task id, per block age (Count)
system.cpu.icache.tags.ageTaskId_1024::1           17                       # Occupied blocks per task id, per block age (Count)
system.cpu.icache.tags.ageTaskId_1024::4          379                       # Occupied blocks per task id, per block age (Count)
system.cpu.icache.tags.ratioOccsTaskId::1024     0.832031                       # Ratio of occupied blocks and all blocks, per task id (Ratio)
system.cpu.icache.tags.tagAccesses         1624236896                       # Number of tag accesses (Count)
system.cpu.icache.tags.dataAccesses        1624236896                       # Number of data accesses (Count)
system.cpu.icache.tags.power_state.pwrStateResidencyTicks::UNDEFINED 1674047892000                       # Cumulative time (in ticks) in various power states (Tick)
system.cpu.mmu.dtb.readHits                         0                       # read hits (Count)
system.cpu.mmu.dtb.readMisses                       0                       # read misses (Count)
system.cpu.mmu.dtb.readAccesses                     0                       # read accesses (Count)
system.cpu.mmu.dtb.writeHits                        0                       # write hits (Count)
system.cpu.mmu.dtb.writeMisses                      0                       # write misses (Count)
system.cpu.mmu.dtb.writeAccesses                    0                       # write accesses (Count)
system.cpu.mmu.dtb.hits                             0                       # Total TLB (read and write) hits (Count)
system.cpu.mmu.dtb.misses                           0                       # Total TLB (read and write) misses (Count)
system.cpu.mmu.dtb.accesses                         0                       # Total TLB (read and write) accesses (Count)
system.cpu.mmu.dtb.walker.num_4kb_walks             0                       # Completed page walks with 4KB pages (Count)
system.cpu.mmu.dtb.walker.num_64kb_walks            0                       # Completed page walks with 64KB pages (Count)
system.cpu.mmu.dtb.walker.num_2mb_walks             0                       # Completed page walks with 2MB pages (Count)
system.cpu.mmu.dtb.walker.power_state.pwrStateResidencyTicks::UNDEFINED 1674047892000                       # Cumulative time (in ticks) in various power states (Tick)
system.cpu.mmu.itb.readHits                         0                       # read hits (Count)
system.cpu.mmu.itb.readMisses                       0                       # read misses (Count)
system.cpu.mmu.itb.readAccesses                     0                       # read accesses (Count)
system.cpu.mmu.itb.writeHits                        0                       # write hits (Count)
system.cpu.mmu.itb.writeMisses                      0                       # write misses (Count)
system.cpu.mmu.itb.writeAccesses                    0                       # write accesses (Count)
system.cpu.mmu.itb.hits                             0                       # Total TLB (read and write) hits (Count)
system.cpu.mmu.itb.misses                           0                       # Total TLB (read and write) misses (Count)
system.cpu.mmu.itb.accesses                         0                       # Total TLB (read and write) accesses (Count)
system.cpu.mmu.itb.walker.num_4kb_walks             0                       # Completed page walks with 4KB pages (Count)
system.cpu.mmu.itb.walker.num_64kb_walks            0                       # Completed page walks with 64KB pages (Count)
system.cpu.mmu.itb.walker.num_2mb_walks             0                       # Completed page walks with 2MB pages (Count)
system.cpu.mmu.itb.walker.power_state.pwrStateResidencyTicks::UNDEFINED 1674047892000                       # Cumulative time (in ticks) in various power states (Tick)
system.cpu.power_state.pwrStateResidencyTicks::ON 1674047892000                       # Cumulative time (in ticks) in various power states (Tick)
system.cpu.thread_0.numInsts               1071113131                       # Number of Instructions committed (Count)
system.cpu.thread_0.numOps                 1071113131                       # Number of Ops committed (Count)
system.cpu.thread_0.numMemRefs                      0                       # Number of Memory References (Count)
system.cpu.workload.numSyscalls                   388                       # Number of system calls (Count)
system.l2bus.transDist::ReadResp              8000747                       # Transaction distribution (Count)
system.l2bus.transDist::WritebackDirty       17625981                       # Transaction distribution (Count)
system.l2bus.transDist::CleanEvict           24982987                       # Transaction distribution (Count)
system.l2bus.transDist::HardPFReq            13970943                       # Transaction distribution (Count)
system.l2bus.transDist::ReadExReq             5750234                       # Transaction distribution (Count)
system.l2bus.transDist::ReadExResp            5750234                       # Transaction distribution (Count)
system.l2bus.transDist::ReadCleanReq              440                       # Transaction distribution (Count)
system.l2bus.transDist::ReadSharedReq         8000307                       # Transaction distribution (Count)
system.l2bus.pktCount_system.cpu.icache.mem_side_port::system.l2cache.cpu_side_port          894                       # Packet count per connected requestor and responder (Count)
system.l2bus.pktCount_system.cpu.dcache.mem_side_port::system.l2cache.cpu_side_port     41250599                       # Packet count per connected requestor and responder (Count)
system.l2bus.pktCount::total                 41251493                       # Packet count per connected requestor and responder (Count)
system.l2bus.pktSize_system.cpu.icache.mem_side_port::system.l2cache.cpu_side_port        28160                       # Cumulative packet size per connected requestor and responder (Byte)
system.l2bus.pktSize_system.cpu.dcache.mem_side_port::system.l2cache.cpu_side_port   1256055552                       # Cumulative packet size per connected requestor and responder (Byte)
system.l2bus.pktSize::total                1256083712                       # Cumulative packet size per connected requestor and responder (Byte)
system.l2bus.snoops                          42830380                       # Total snoops (Count)
system.l2bus.snoopTraffic                   752041856                       # Total snoop traffic (Byte)
system.l2bus.snoopFanout::samples            56581361                       # Request fanout histogram (Count)
system.l2bus.snoopFanout::mean               0.000021                       # Request fanout histogram (Count)
system.l2bus.snoopFanout::stdev              0.004553                       # Request fanout histogram (Count)
system.l2bus.snoopFanout::underflows                0      0.00%      0.00% # Request fanout histogram (Count)
system.l2bus.snoopFanout::0                  56580188    100.00%    100.00% # Request fanout histogram (Count)
system.l2bus.snoopFanout::1                      1173      0.00%    100.00% # Request fanout histogram (Count)
system.l2bus.snoopFanout::2                         0      0.00%    100.00% # Request fanout histogram (Count)
system.l2bus.snoopFanout::overflows                 0      0.00%    100.00% # Request fanout histogram (Count)
system.l2bus.snoopFanout::min_value                 0                       # Request fanout histogram (Count)
system.l2bus.snoopFanout::max_value                 1                       # Request fanout histogram (Count)
system.l2bus.snoopFanout::total              56581361                       # Request fanout histogram (Count)
system.l2bus.power_state.pwrStateResidencyTicks::UNDEFINED 1674047892000                       # Cumulative time (in ticks) in various power states (Tick)
system.l2bus.reqLayer0.occupancy          39251166000                       # Layer occupancy (ticks) (Tick)
system.l2bus.reqLayer0.utilization                0.0                       # Layer utilization (Ratio)
system.l2bus.respLayer0.occupancy             1320000                       # Layer occupancy (ticks) (Tick)
system.l2bus.respLayer0.utilization               0.0                       # Layer utilization (Ratio)
system.l2bus.respLayer1.occupancy         41251623000                       # Layer occupancy (ticks) (Tick)
system.l2bus.respLayer1.utilization               0.0                       # Layer utilization (Ratio)
system.l2bus.snoop_filter.totRequests        27500512                       # Total number of requests made to the snoop filter. (Count)
system.l2bus.snoop_filter.hitSingleRequests     13749532                       # Number of requests hitting in the snoop filter with a single holder of the requested data. (Count)
system.l2bus.snoop_filter.hitMultiRequests            5                       # Number of requests hitting in the snoop filter with multiple (>1) holders of the requested data. (Count)
system.l2bus.snoop_filter.totSnoops              1167                       # Total number of snoops made to the snoop filter. (Count)
system.l2bus.snoop_filter.hitSingleSnoops         1167                       # Number of snoops hitting in the snoop filter with a single holder of the requested data. (Count)
system.l2bus.snoop_filter.hitMultiSnoops            0                       # Number of snoops hitting in the snoop filter with multiple (>1) holders of the requested data. (Count)
system.l2cache.demandHits::cpu.inst               355                       # number of demand (read+write) hits (Count)
system.l2cache.demandHits::cpu.data          13533731                       # number of demand (read+write) hits (Count)
system.l2cache.demandHits::total             13534086                       # number of demand (read+write) hits (Count)
system.l2cache.overallHits::cpu.inst              355                       # number of overall hits (Count)
system.l2cache.overallHits::cpu.data         13533731                       # number of overall hits (Count)
system.l2cache.overallHits::total            13534086                       # number of overall hits (Count)
system.l2cache.demandMisses::cpu.inst              85                       # number of demand (read+write) misses (Count)
system.l2cache.demandMisses::cpu.data          216810                       # number of demand (read+write) misses (Count)
system.l2cache.demandMisses::total             216895                       # number of demand (read+write) misses (Count)
system.l2cache.overallMisses::cpu.inst             85                       # number of overall misses (Count)
system.l2cache.overallMisses::cpu.data         216810                       # number of overall misses (Count)
system.l2cache.overallMisses::total            216895                       # number of overall misses (Count)
system.l2cache.demandMissLatency::cpu.inst     12863000                       # number of demand (read+write) miss ticks (Tick)
system.l2cache.demandMissLatency::cpu.data  39843601000                       # number of demand (read+write) miss ticks (Tick)
system.l2cache.demandMissLatency::total   39856464000                       # number of demand (read+write) miss ticks (Tick)
system.l2cache.overallMissLatency::cpu.inst     12863000                       # number of overall miss ticks (Tick)
system.l2cache.overallMissLatency::cpu.data  39843601000                       # number of overall miss ticks (Tick)
system.l2cache.overallMissLatency::total  39856464000                       # number of overall miss ticks (Tick)
system.l2cache.demandAccesses::cpu.inst           440                       # number of demand (read+write) accesses (Count)
system.l2cache.demandAccesses::cpu.data      13750541                       # number of demand (read+write) accesses (Count)
system.l2cache.demandAccesses::total         13750981                       # number of demand (read+write) accesses (Count)
system.l2cache.overallAccesses::cpu.inst          440                       # number of overall (read+write) accesses (Count)
system.l2cache.overallAccesses::cpu.data     13750541                       # number of overall (read+write) accesses (Count)
system.l2cache.overallAccesses::total        13750981                       # number of overall (read+write) accesses (Count)
system.l2cache.demandMissRate::cpu.inst      0.193182                       # miss rate for demand accesses (Ratio)
system.l2cache.demandMissRate::cpu.data      0.015767                       # miss rate for demand accesses (Ratio)
system.l2cache.demandMissRate::total         0.015773                       # miss rate for demand accesses (Ratio)
system.l2cache.overallMissRate::cpu.inst     0.193182                       # miss rate for overall accesses (Ratio)
system.l2cache.overallMissRate::cpu.data     0.015767                       # miss rate for overall accesses (Ratio)
system.l2cache.overallMissRate::total        0.015773                       # miss rate for overall accesses (Ratio)
system.l2cache.demandAvgMissLatency::cpu.inst 151329.411765                       # average overall miss latency in ticks ((Tick/Count))
system.l2cache.demandAvgMissLatency::cpu.data 183771.970850                       # average overall miss latency in ticks ((Tick/Count))
system.l2cache.demandAvgMissLatency::total 183759.256783                       # average overall miss latency in ticks ((Tick/Count))
system.l2cache.overallAvgMissLatency::cpu.inst 151329.411765                       # average overall miss latency ((Tick/Count))
system.l2cache.overallAvgMissLatency::cpu.data 183771.970850                       # average overall miss latency ((Tick/Count))
system.l2cache.overallAvgMissLatency::total 183759.256783                       # average overall miss latency ((Tick/Count))
system.l2cache.blockedCycles::no_mshrs              0                       # number of cycles access was blocked (Cycle)
system.l2cache.blockedCycles::no_targets            0                       # number of cycles access was blocked (Cycle)
system.l2cache.blockedCauses::no_mshrs              0                       # number of times access was blocked (Count)
system.l2cache.blockedCauses::no_targets            0                       # number of times access was blocked (Count)
system.l2cache.avgBlocked::no_mshrs               nan                       # average number of cycles each access was blocked ((Cycle/Count))
system.l2cache.avgBlocked::no_targets             nan                       # average number of cycles each access was blocked ((Cycle/Count))
system.l2cache.writebacks::writebacks         5875327                       # number of writebacks (Count)
system.l2cache.writebacks::total              5875327                       # number of writebacks (Count)
system.l2cache.demandMshrHits::cpu.inst            13                       # number of demand (read+write) MSHR hits (Count)
system.l2cache.demandMshrHits::cpu.data          1697                       # number of demand (read+write) MSHR hits (Count)
system.l2cache.demandMshrHits::total             1710                       # number of demand (read+write) MSHR hits (Count)
[...]
system.mem_ctrl.dram.bwTotal::l2cache.prefetcher    517547764                       # Total bandwidth to/from this memory ((Byte/Second))
system.mem_ctrl.dram.bwTotal::total         750392219                       # Total bandwidth to/from this memory ((Byte/Second))
system.mem_ctrl.dram.readBursts              13752661                       # Number of DRAM read bursts (Count)
system.mem_ctrl.dram.writeBursts              5875307                       # Number of DRAM write bursts (Count)
system.mem_ctrl.dram.perBankRdBursts::0        859106                       # Per bank write bursts (Count)
system.mem_ctrl.dram.perBankRdBursts::1        859029                       # Per bank write bursts (Count)
system.mem_ctrl.dram.perBankRdBursts::2        859011                       # Per bank write bursts (Count)
system.mem_ctrl.dram.perBankRdBursts::3        858992                       # Per bank write bursts (Count)
system.mem_ctrl.dram.perBankRdBursts::4        858907                       # Per bank write bursts (Count)
system.mem_ctrl.dram.perBankRdBursts::5        859441                       # Per bank write bursts (Count)
system.mem_ctrl.dram.perBankRdBursts::6        861432                       # Per bank write bursts (Count)
system.mem_ctrl.dram.perBankRdBursts::7        863749                       # Per bank write bursts (Count)
system.mem_ctrl.dram.perBankRdBursts::8        860718                       # Per bank write bursts (Count)
system.mem_ctrl.dram.perBankRdBursts::9        858996                       # Per bank write bursts (Count)
system.mem_ctrl.dram.perBankRdBursts::10       858880                       # Per bank write bursts (Count)
system.mem_ctrl.dram.perBankRdBursts::11       858880                       # Per bank write bursts (Count)
system.mem_ctrl.dram.perBankRdBursts::12       858880                       # Per bank write bursts (Count)
system.mem_ctrl.dram.perBankRdBursts::13       858880                       # Per bank write bursts (Count)
system.mem_ctrl.dram.perBankRdBursts::14       858880                       # Per bank write bursts (Count)
system.mem_ctrl.dram.perBankRdBursts::15       858880                       # Per bank write bursts (Count)
system.mem_ctrl.dram.perBankWrBursts::0        366976                       # Per bank write bursts (Count)
system.mem_ctrl.dram.perBankWrBursts::1        366976                       # Per bank write bursts (Count)
system.mem_ctrl.dram.perBankWrBursts::2        366976                       # Per bank write bursts (Count)
system.mem_ctrl.dram.perBankWrBursts::3        366976                       # Per bank write bursts (Count)
system.mem_ctrl.dram.perBankWrBursts::4        366976                       # Per bank write bursts (Count)
system.mem_ctrl.dram.perBankWrBursts::5        366976                       # Per bank write bursts (Count)
system.mem_ctrl.dram.perBankWrBursts::6        367896                       # Per bank write bursts (Count)
system.mem_ctrl.dram.perBankWrBursts::7        369044                       # Per bank write bursts (Count)
system.mem_ctrl.dram.perBankWrBursts::8        367651                       # Per bank write bursts (Count)
system.mem_ctrl.dram.perBankWrBursts::9        367004                       # Per bank write bursts (Count)
system.mem_ctrl.dram.perBankWrBursts::10       366976                       # Per bank write bursts (Count)
system.mem_ctrl.dram.perBankWrBursts::11       366976                       # Per bank write bursts (Count)
system.mem_ctrl.dram.perBankWrBursts::12       366976                       # Per bank write bursts (Count)
system.mem_ctrl.dram.perBankWrBursts::13       366976                       # Per bank write bursts (Count)
system.mem_ctrl.dram.perBankWrBursts::14       366976                       # Per bank write bursts (Count)
system.mem_ctrl.dram.perBankWrBursts::15       366976                       # Per bank write bursts (Count)
system.mem_ctrl.dram.totQLat             407410619687                       # Total ticks spent queuing (Tick)
system.mem_ctrl.dram.totBusLat            68763305000                       # Total ticks spent in databus transfers (Tick)
system.mem_ctrl.dram.totMemAccLat        665273013437                       # Total ticks spent from burst creation until serviced by the DRAM (Tick)
system.mem_ctrl.dram.avgQLat                 29624.13                       # Average queueing delay per DRAM burst ((Tick/Count))
system.mem_ctrl.dram.avgBusLat                5000.00                       # Average bus latency per DRAM burst ((Tick/Count))
system.mem_ctrl.dram.avgMemAccLat            48374.13                       # Average memory access latency per DRAM burst ((Tick/Count))
system.mem_ctrl.dram.readRowHits              7943510                       # Number of row buffer hits during reads (Count)
system.mem_ctrl.dram.writeRowHits             5303679                       # Number of row buffer hits during writes (Count)
system.mem_ctrl.dram.readRowHitRate             57.76                       # Row buffer hit rate for reads (Ratio)
system.mem_ctrl.dram.writeRowHitRate            90.27                       # Row buffer hit rate for writes (Ratio)
system.mem_ctrl.dram.bytesPerActivate::samples      6380774                       # Bytes accessed per row activation (Byte)
system.mem_ctrl.dram.bytesPerActivate::mean   196.870832                       # Bytes accessed per row activation (Byte)
system.mem_ctrl.dram.bytesPerActivate::gmean   101.751533                       # Bytes accessed per row activation (Byte)
system.mem_ctrl.dram.bytesPerActivate::stdev   301.031980                       # Bytes accessed per row activation (Byte)
system.mem_ctrl.dram.bytesPerActivate::0-127      5012231     78.55%     78.55% # Bytes accessed per row activation (Byte)
system.mem_ctrl.dram.bytesPerActivate::128-255       213487      3.35%     81.90% # Bytes accessed per row activation (Byte)
system.mem_ctrl.dram.bytesPerActivate::256-383       128130      2.01%     83.91% # Bytes accessed per row activation (Byte)
system.mem_ctrl.dram.bytesPerActivate::384-511        98320      1.54%     85.45% # Bytes accessed per row activation (Byte)
system.mem_ctrl.dram.bytesPerActivate::512-639       176697      2.77%     88.22% # Bytes accessed per row activation (Byte)
system.mem_ctrl.dram.bytesPerActivate::640-767        54014      0.85%     89.06% # Bytes accessed per row activation (Byte)
system.mem_ctrl.dram.bytesPerActivate::768-895        62869      0.99%     90.05% # Bytes accessed per row activation (Byte)
system.mem_ctrl.dram.bytesPerActivate::896-1023        54815      0.86%     90.91% # Bytes accessed per row activation (Byte)
system.mem_ctrl.dram.bytesPerActivate::1024-1151       580211      9.09%    100.00% # Bytes accessed per row activation (Byte)
system.mem_ctrl.dram.bytesPerActivate::total      6380774                       # Bytes accessed per row activation (Byte)
system.mem_ctrl.dram.dramBytesRead          880170304                       # Total bytes read (Byte)
system.mem_ctrl.dram.dramBytesWritten       376019648                       # Total bytes written (Byte)
system.mem_ctrl.dram.avgRdBW               525.773670                       # Average DRAM read bandwidth in MiBytes/s ((Byte/Second))
system.mem_ctrl.dram.avgWrBW               224.617019                       # Average DRAM write bandwidth in MiBytes/s ((Byte/Second))
system.mem_ctrl.dram.peakBW                  12800.00                       # Theoretical peak bandwidth in MiByte/s ((Byte/Second))
system.mem_ctrl.dram.busUtil                     5.86                       # Data bus utilization in percentage (Ratio)
system.mem_ctrl.dram.busUtilRead                 4.11                       # Data bus utilization in percentage for reads (Ratio)
system.mem_ctrl.dram.busUtilWrite                1.75                       # Data bus utilization in percentage for writes (Ratio)
system.mem_ctrl.dram.pageHitRate                67.49                       # Row buffer hit rate, read and write combined (Ratio)
system.mem_ctrl.dram.power_state.pwrStateResidencyTicks::UNDEFINED 1674047892000                       # Cumulative time (in ticks) in various power states (Tick)
system.mem_ctrl.dram.rank0.actEnergy      22790787180                       # Energy for activate commands per rank (pJ) (Joule)
system.mem_ctrl.dram.rank0.preEnergy      12113571690                       # Energy for precharge commands per rank (pJ) (Joule)
system.mem_ctrl.dram.rank0.readEnergy     49120822380                       # Energy for read commands per rank (pJ) (Joule)
system.mem_ctrl.dram.rank0.writeEnergy    15340515120                       # Energy for write commands per rank (pJ) (Joule)
system.mem_ctrl.dram.rank0.refreshEnergy 132147600000.000015                       # Energy for refresh commands per rank (pJ) (Joule)
system.mem_ctrl.dram.rank0.actBackEnergy 533011072080                       # Energy for active background per rank (pJ) (Joule)
system.mem_ctrl.dram.rank0.preBackEnergy 193982961600                       # Energy for precharge background per rank (pJ) (Joule)
system.mem_ctrl.dram.rank0.actPowerDownEnergy            0                       # Energy for active power-down per rank (pJ) (Joule)
system.mem_ctrl.dram.rank0.prePowerDownEnergy            0                       # Energy for precharge power-down per rank (pJ) (Joule)
system.mem_ctrl.dram.rank0.selfRefreshEnergy            0                       # Energy for self refresh per rank (pJ) (Joule)
system.mem_ctrl.dram.rank0.totalEnergy   958507330050                       # Total energy per rank (pJ) (Joule)
system.mem_ctrl.dram.rank0.averagePower    572.568643                       # Core power per rank (mW) (Watt)
system.mem_ctrl.dram.rank0.totalIdleTime            0                       # Total Idle time Per DRAM Rank (Tick)
system.mem_ctrl.dram.rank0.pwrStateTime::IDLE 490167331179                       # Time in different power states (Tick)
system.mem_ctrl.dram.rank0.pwrStateTime::REF  55900000000                       # Time in different power states (Tick)
system.mem_ctrl.dram.rank0.pwrStateTime::SREF            0                       # Time in different power states (Tick)
system.mem_ctrl.dram.rank0.pwrStateTime::PRE_PDN            0                       # Time in different power states (Tick)
system.mem_ctrl.dram.rank0.pwrStateTime::ACT 1127980560821                       # Time in different power states (Tick)
system.mem_ctrl.dram.rank0.pwrStateTime::ACT_PDN            0                       # Time in different power states (Tick)
system.mem_ctrl.dram.rank1.actEnergy      22767974880                       # Energy for activate commands per rank (pJ) (Joule)
system.mem_ctrl.dram.rank1.preEnergy      12101465640                       # Energy for precharge commands per rank (pJ) (Joule)
system.mem_ctrl.dram.rank1.readEnergy     49073177160                       # Energy for read commands per rank (pJ) (Joule)
system.mem_ctrl.dram.rank1.writeEnergy    15328587420                       # Energy for write commands per rank (pJ) (Joule)
system.mem_ctrl.dram.rank1.refreshEnergy 132147600000.000015                       # Energy for refresh commands per rank (pJ) (Joule)
system.mem_ctrl.dram.rank1.actBackEnergy 532904080800                       # Energy for active background per rank (pJ) (Joule)
system.mem_ctrl.dram.rank1.preBackEnergy 194073059520                       # Energy for precharge background per rank (pJ) (Joule)
system.mem_ctrl.dram.rank1.actPowerDownEnergy            0                       # Energy for active power-down per rank (pJ) (Joule)
system.mem_ctrl.dram.rank1.prePowerDownEnergy            0                       # Energy for precharge power-down per rank (pJ) (Joule)
system.mem_ctrl.dram.rank1.selfRefreshEnergy            0                       # Energy for self refresh per rank (pJ) (Joule)
system.mem_ctrl.dram.rank1.totalEnergy   958395945420                       # Total energy per rank (pJ) (Joule)
system.mem_ctrl.dram.rank1.averagePower    572.502107                       # Core power per rank (mW) (Watt)
system.mem_ctrl.dram.rank1.totalIdleTime            0                       # Total Idle time Per DRAM Rank (Tick)
system.mem_ctrl.dram.rank1.pwrStateTime::IDLE 490403668168                       # Time in different power states (Tick)
system.mem_ctrl.dram.rank1.pwrStateTime::REF  55900000000                       # Time in different power states (Tick)
system.mem_ctrl.dram.rank1.pwrStateTime::SREF            0                       # Time in different power states (Tick)
system.mem_ctrl.dram.rank1.pwrStateTime::PRE_PDN            0                       # Time in different power states (Tick)
system.mem_ctrl.dram.rank1.pwrStateTime::ACT 1127744223832                       # Time in different power states (Tick)
system.mem_ctrl.dram.rank1.pwrStateTime::ACT_PDN            0                       # Time in different power states (Tick)
system.mem_ctrl.power_state.pwrStateResidencyTicks::UNDEFINED 1674047892000                       # Cumulative time (in ticks) in various power states (Tick)
system.membus.transDist::ReadResp            13662722                       # Transaction distribution (Count)
system.membus.transDist::WritebackDirty       5875327                       # Transaction distribution (Count)
system.membus.transDist::CleanEvict           7868777                       # Transaction distribution (Count)
system.membus.transDist::ReadExReq              89959                       # Transaction distribution (Count)
system.membus.transDist::ReadExResp             89959                       # Transaction distribution (Count)
system.membus.transDist::ReadSharedReq       13662722                       # Transaction distribution (Count)
system.membus.pktCount_system.l3cache0.mem_side_port::system.mem_ctrl.port     10312312                       # Packet count per connected requestor and responder (Count)
system.membus.pktCount_system.l3cache1.mem_side_port::system.mem_ctrl.port     10312325                       # Packet count per connected requestor and responder (Count)
system.membus.pktCount_system.l3cache2.mem_side_port::system.mem_ctrl.port     10312433                       # Packet count per connected requestor and responder (Count)
system.membus.pktCount_system.l3cache3.mem_side_port::system.mem_ctrl.port     10312396                       # Packet count per connected requestor and responder (Count)
system.membus.pktCount::total                41249466                       # Packet count per connected requestor and responder (Count)
system.membus.pktSize_system.l3cache0.mem_side_port::system.mem_ctrl.port    314047424                       # Cumulative packet size per connected requestor and responder (Byte)
system.membus.pktSize_system.l3cache1.mem_side_port::system.mem_ctrl.port    314048064                       # Cumulative packet size per connected requestor and responder (Byte)
system.membus.pktSize_system.l3cache2.mem_side_port::system.mem_ctrl.port    314050752                       # Cumulative packet size per connected requestor and responder (Byte)
system.membus.pktSize_system.l3cache3.mem_side_port::system.mem_ctrl.port    314046272                       # Cumulative packet size per connected requestor and responder (Byte)
system.membus.pktSize::total               1256192512                       # Cumulative packet size per connected requestor and responder (Byte)
system.membus.snoops                                0                       # Total snoops (Count)
system.membus.snoopTraffic                          0                       # Total snoop traffic (Byte)
system.membus.snoopFanout::samples           13752681                       # Request fanout histogram (Count)
system.membus.snoopFanout::mean                     0                       # Request fanout histogram (Count)
system.membus.snoopFanout::stdev                    0                       # Request fanout histogram (Count)
system.membus.snoopFanout::underflows               0      0.00%      0.00% # Request fanout histogram (Count)
system.membus.snoopFanout::0                 13752681    100.00%    100.00% # Request fanout histogram (Count)
system.membus.snoopFanout::1                        0      0.00%    100.00% # Request fanout histogram (Count)
system.membus.snoopFanout::2                        0      0.00%    100.00% # Request fanout histogram (Count)
system.membus.snoopFanout::3                        0      0.00%    100.00% # Request fanout histogram (Count)
system.membus.snoopFanout::4                        0      0.00%    100.00% # Request fanout histogram (Count)
system.membus.snoopFanout::overflows                0      0.00%    100.00% # Request fanout histogram (Count)
system.membus.snoopFanout::min_value                0                       # Request fanout histogram (Count)
system.membus.snoopFanout::max_value                0                       # Request fanout histogram (Count)
system.membus.snoopFanout::total             13752681                       # Request fanout histogram (Count)
system.membus.power_state.pwrStateResidencyTicks::UNDEFINED 1674047892000                       # Cumulative time (in ticks) in various power states (Tick)
system.membus.reqLayer0.occupancy         51080528981                       # Layer occupancy (ticks) (Tick)
system.membus.reqLayer0.utilization               0.0                       # Layer utilization (Ratio)
system.membus.respLayer0.occupancy        18378206338                       # Layer occupancy (ticks) (Tick)
system.membus.respLayer0.utilization              0.0                       # Layer utilization (Ratio)
system.membus.respLayer1.occupancy        18198784172                       # Layer occupancy (ticks) (Tick)
system.membus.respLayer1.utilization              0.0                       # Layer utilization (Ratio)
system.membus.respLayer2.occupancy        18295119020                       # Layer occupancy (ticks) (Tick)
system.membus.respLayer2.utilization              0.0                       # Layer utilization (Ratio)
system.membus.respLayer3.occupancy        18293584312                       # Layer occupancy (ticks) (Tick)
system.membus.respLayer3.utilization              0.0                       # Layer utilization (Ratio)
system.membus.snoop_filter.totRequests       27496785                       # Total number of requests made to the snoop filter. (Count)
system.membus.snoop_filter.hitSingleRequests     13744109                       # Number of requests hitting in the snoop filter with a single holder of the requested data. (Count)
system.membus.snoop_filter.hitMultiRequests            0                       # Number of requests hitting in the snoop filter with multiple (>1) holders of the requested data. (Count)
system.membus.snoop_filter.totSnoops                0                       # Total number of snoops made to the snoop filter. (Count)
system.membus.snoop_filter.hitSingleSnoops            0                       # Number of snoops hitting in the snoop filter with a single holder of the requested data. (Count)
system.membus.snoop_filter.hitMultiSnoops            0                       # Number of snoops hitting in the snoop filter with multiple (>1) holders of the requested data. (Count)
system.workload.inst.arm                            0                       # number of arm instructions executed (Count)
system.workload.inst.quiesce                        0                       # number of quiesce instructions executed (Count)
system.cpu.idleCycles                       194995029                       # Total number of cycles that the object has spent stopped (Unspecified)
system.cpu.tickCycles                      1479052863                       # Number of cycles that the object actually ticked (Unspecified)

---------- End Simulation Statistics   ----------
